cSrc-2qlq
                    3D
 Structure written by MMmdl.
 27 29  0  0  1  0            999 V2000
   -6.7680    0.0870    0.0000 C   0  0  0  0  0  0
   -5.9020    0.5880    0.0000 N   0  3  0  0  0  0
   -5.9030    1.5880    0.0000 C   0  0  0  0  0  0
   -5.0360    0.0890    0.0000 C   0  0  0  0  0  0
   -4.1700    0.5890    0.0000 C   0  0  0  0  0  0
   -3.3040    0.0900    0.0000 C   0  0  0  0  0  0
   -2.4380    0.5910    0.0000 C   0  0  0  0  0  0
   -2.4390    1.5910    0.0000 O   0  0  0  0  0  0
   -1.5720    0.0910    0.0000 N   0  0  0  0  0  0
   -0.7060    0.5920    0.0000 C   0  0  0  0  0  0
   -0.7070    1.5920    0.0000 C   0  0  0  0  0  0
    0.1590    2.0930    0.0000 C   0  0  0  0  0  0
    1.0250    1.5940    0.0000 C   0  0  0  0  0  0
    1.8910    2.0940    0.0000 N   0  0  0  0  0  0
    2.7570    1.5950    0.0000 C   0  0  0  0  0  0
    2.7580    0.5950    0.0000 N   0  0  0  0  0  0
    1.8920    0.0940    0.0000 C   0  0  0  0  0  0
    1.8930   -0.9060    0.0000 N   0  0  0  0  0  0
    2.7600   -1.4050    0.0000 C   0  0  0  0  0  0
    3.6250   -0.9050    0.0000 C   0  0  0  0  0  0
    4.4920   -1.4040    0.0000 C   0  0  0  0  0  0
    4.4920   -2.4040    0.0000 C   0  0  0  0  0  0
    3.6270   -2.9040    0.0000 C   0  0  0  0  0  0
    3.6280   -3.9040    0.0000 Br  0  0  0  0  0  0
    2.7600   -2.4050    0.0000 C   0  0  0  0  0  0
    1.0260    0.5930    0.0000 C   0  0  0  0  0  0
    0.1600    0.0930    0.0000 C   0  0  0  0  0  0
  1  2  1  0  0  0
  2  3  1  0  0  0
  2  4  1  0  0  0
  4  5  1  0  0  0
  5  6  2  0  0  0
  6  7  1  0  0  0
  7  8  2  0  0  0
  7  9  1  0  0  0
  9 10  1  0  0  0
 10 11  2  0  0  0
 10 27  1  0  0  0
 11 12  1  0  0  0
 12 13  2  0  0  0
 13 14  1  0  0  0
 13 26  1  0  0  0
 14 15  2  0  0  0
 15 16  1  0  0  0
 16 17  2  0  0  0
 17 18  1  0  0  0
 17 26  1  0  0  0
 18 19  1  0  0  0
 19 20  1  0  0  0
 19 25  2  0  0  0
 20 21  2  0  0  0
 21 22  1  0  0  0
 22 23  2  0  0  0
 23 24  1  0  0  0
 23 25  1  0  0  0
 26 27  2  0  0  0
M  CHG  1   2   1
M  END
> <s_m_entry_id>
56

> <s_m_entry_name>
covvs.3

> <name>
cSrc-2qlq

> <label>
1

> <s_m_Source_Path>
C:\Users\sc\Desktop

> <s_m_Source_File>
covvs.sdf

> <i_m_Source_File_Index>
3

$$$$
