2QLQ
                    3D
 Structure written by MMmdl.
 48 50  0  0  1  0            999 V2000
    5.1252    3.8706    7.8282 C   0  0  0  0  0  0
    4.3431    3.4844    8.9281 C   0  0  0  0  0  0
    2.6515    2.7699    8.7031 Br  0  0  0  0  0  0
    4.7361    3.7101   10.2488 C   0  0  0  0  0  0
    5.9321    4.3858   10.4962 C   0  0  0  0  0  0
    6.7115    4.8186    9.4129 C   0  0  0  0  0  0
    6.3304    4.5455    8.0795 C   0  0  0  0  0  0
    7.1554    4.9386    7.0232 N   0  0  0  0  0  0
    8.5383    4.7200    6.9724 C   0  0  0  0  0  0
    9.4170    5.4846    6.1693 C   0  0  0  0  0  0
    8.9812    6.5384    5.3562 C   0  0  0  0  0  0
    9.0098    3.7048    7.7220 N   0  0  0  0  0  0
   10.3109    3.4590    7.6635 C   0  0  0  0  0  0
   11.2246    4.1273    6.9672 N   0  0  0  0  0  0
   10.7915    5.1456    6.1997 C   0  0  0  0  0  0
   11.6958    5.8950    5.4258 C   0  0  0  0  0  0
   11.2469    6.9026    4.5548 C   0  0  0  0  0  0
    9.8759    7.1913    4.4749 C   0  0  0  0  0  0
    9.4131    8.0961    3.4836 N   0  0  0  0  0  0
    8.2269    7.9396    2.8636 C   0  0  0  0  0  0
    7.4144    7.0721    3.1682 O   0  0  0  0  0  0
    7.7479    8.9286    1.8215 C   0  0  0  0  0  0
    8.5838    9.2525    0.5589 C   0  0  0  0  0  0
    7.9207   10.5009   -0.0668 C   0  0  0  0  0  0
    6.9145   10.2295   -1.1043 N   0  0  0  0  0  0
    5.8271    9.3207   -0.7537 C   0  0  0  0  0  0
    6.3341   11.4895   -1.5354 C   0  0  0  0  0  0
    4.7907    3.6824    6.8181 H   0  0  0  0  0  0
    4.1073    3.4010   11.0707 H   0  0  0  0  0  0
    6.2521    4.5814   11.5096 H   0  0  0  0  0  0
    7.6310    5.3439    9.6159 H   0  0  0  0  0  0
    6.7154    5.3293    6.2020 H   0  0  0  0  0  0
    7.9363    6.7999    5.3915 H   0  0  0  0  0  0
   10.6680    2.6628    8.2826 H   0  0  0  0  0  0
   12.7509    5.6891    5.4895 H   0  0  0  0  0  0
   11.9548    7.4401    3.9422 H   0  0  0  0  0  0
   10.0529    8.8010    3.1472 H   0  0  0  0  0  0
    7.6084    9.8481    2.3920 H   0  0  0  0  0  0
    6.7429    8.6244    1.5405 H   0  0  0  0  0  0
    9.5731    9.5484    0.9102 H   0  0  0  0  0  0
    8.7052   11.0949   -0.5349 H   0  0  0  0  0  0
    7.4928   11.1482    0.6999 H   0  0  0  0  0  0
    5.1312    9.2256   -1.5881 H   0  0  0  0  0  0
    6.1772    8.3144   -0.5338 H   0  0  0  0  0  0
    5.2684    9.6925    0.1060 H   0  0  0  0  0  0
    5.6515   11.3330   -2.3714 H   0  0  0  0  0  0
    5.7826   11.9722   -0.7275 H   0  0  0  0  0  0
    7.1133   12.1726   -1.8765 H   0  0  0  0  0  0
  1  2  1  0  0  0
  1  7  2  0  0  0
  1 28  1  0  0  0
  2  3  1  0  0  0
  2  4  2  0  0  0
  4  5  1  0  0  0
  4 29  1  0  0  0
  5  6  2  0  0  0
  5 30  1  0  0  0
  6  7  1  0  0  0
  6 31  1  0  0  0
  7  8  1  0  0  0
  8  9  1  0  0  0
  8 32  1  0  0  0
  9 10  1  0  0  0
  9 12  2  0  0  0
 10 11  1  0  0  0
 10 15  2  0  0  0
 11 18  2  0  0  0
 11 33  1  0  0  0
 12 13  1  0  0  0
 13 14  2  0  0  0
 13 34  1  0  0  0
 14 15  1  0  0  0
 15 16  1  0  0  0
 16 17  2  0  0  0
 16 35  1  0  0  0
 17 18  1  0  0  0
 17 36  1  0  0  0
 18 19  1  0  0  0
 19 20  1  0  0  0
 19 37  1  0  0  0
 20 21  2  0  0  0
 20 22  1  0  0  0
 22 23  1  0  0  0
 22 38  1  0  0  0
 22 39  1  0  0  0
 23 24  1  0  0  0
 23 40  1  0  0  0
 24 25  1  0  0  0
 24 41  1  0  0  0
 24 42  1  0  0  0
 25 26  1  0  0  0
 25 27  1  0  0  0
 26 43  1  0  0  0
 26 44  1  0  0  0
 26 45  1  0  0  0
 27 46  1  0  0  0
 27 47  1  0  0  0
 27 48  1  0  0  0
M  END
> <s_m_entry_id>
854

> <s_m_entry_name>
2qlq.1

> <s_pdb_PDB_TITLE>
CRYSTAL STRUCTURE OF SRC KINASE DOMAIN WITH COVALENT INHIBIT

> <s_pdb_PDB_ID>
2QLQ

> <r_pdb_PDB_CRYST1_a>
41.94

> <r_pdb_PDB_CRYST1_b>
63.53

> <r_pdb_PDB_CRYST1_c>
74.5

> <r_pdb_PDB_CRYST1_alpha>
78.28

> <r_pdb_PDB_CRYST1_beta>
90.37

> <r_pdb_PDB_CRYST1_gamma>
89.45

> <s_pdb_PDB_CRYST1_Space_Group>
P 1

> <i_pdb_PDB_CRYST1_z>
2

> <s_pdb_PDB_CLASSIFICATION>
TRANSFERASE

> <s_pdb_PDB_DEPOSITION_DATE>
13-JUL-07

> <s_pdb_PDB_format_version>
3.30

> <r_pdb_PDB_R>
0.211999997496605

> <r_pdb_PDB_Rfree>
0.266999989748001

> <r_pdb_PDB_RESOLUTION>
2.33

> <s_pdb_PDB_EXPDTA>
X-RAY DIFFRACTION

> <s_pdb_PDB_REMARK_350_Biomolecule_1_Chains>
A

> <s_pdb_PDB_REMARK_350_Biomolecule_1_Transformation_1>
1.000000 0.000000 0.000000   0.000000;0.000000 1.000000 0.000000   0.000000;0.000000 0.000000 1.000000   0.000000

> <s_pdb_PDB_REMARK_350_Biomolecule_2_Chains>
B

> <s_pdb_PDB_REMARK_350_Biomolecule_2_Transformation_1>
1.000000 0.000000 0.000000   0.000000;0.000000 1.000000 0.000000   0.000000;0.000000 0.000000 1.000000   0.000000

> <s_m_Source_Path>
C:\Users\sc\Desktop

> <s_m_Source_File>
2qlq.mae

> <i_m_Source_File_Index>
1

> <s_ppw_entry_id_backup>
853

> <b_ppw_prepared>
1

> <b_ppw_assigned_bond_orders>
1

> <b_ppw_added_hydrogens>
1

> <b_ppw_treated_metals>
1

> <b_ppw_created_disulfur>
1

> <b_psp_distorted_structure>
-1

> <i_psp_model_num>
0

> <r_psp_Prime_Coulomb>
-8304.50521924403

> <r_psp_Prime_Covalent>
9728.25568403267

> <r_psp_Prime_vdW>
698006670742.395

> <r_psp_Prime_Solv_GB>
-1706.11756506925

> <r_psp_Prime_Lipo>
-1680.71995837098

> <r_psp_Prime_Energy>
698006668574.534

> <r_psp_Prime_Hbond>
-91.9423862567392

> <r_psp_Prime_Packing>
-7.35270411648606

> <r_psp_Prime_SelfCont>
-105.478171792714

> <b_ppw_deleted_far_waters>
1

> <b_ppw_ran_protassign>
1

> <r_i_target_temperature>
298

> <b_ppw_ran_impref>
1

> <r_i_Potential_Energy-OPLS2005>
748.44287109375

> <r_i_RMS_Derivative-OPLS2005>
0.182637483785707

> <r_i_Max_Derivative-OPLS2005>
5.52890300750732

> <r_i_Stretch_Energy-OPLS2005>
160.727463375692

> <r_i_Bend_Energy-OPLS2005>
620.011033058031

> <r_i_LJ-14_Energy-OPLS2005>
1392.97353945639

> <r_i_El-14_Energy-OPLS2005>
415.474613238308

> <r_i_Van_der_Waals_Energy-OPLS2005>
-2252.21691138362

> <r_i_Electrostatic_Energy-OPLS2005>
-1433.6247878057

> <r_i_Dihedral_Energy-OPLS2005>
986.18356339018

> <r_pdb_PDB_EXPDTA_TEMPERATURE>
100

> <r_pdb_PDB_EXPDTA_PH>
8

$$$$
