cSrc-2hwo
  -OEChem-10082421392D

 22 24  0     0  0  0  0  0  0999 V2000
   -5.0780    0.5190    0.0000 C   0  0  0  0  0  0  0  0  0  0  0  0
   -4.2120    0.0190    0.0000 C   0  0  0  0  0  0  0  0  0  0  0  0
   -3.3460    0.5200    0.0000 C   0  0  0  0  0  0  0  0  0  0  0  0
   -3.3470    1.5200    0.0000 O   0  0  0  0  0  0  0  0  0  0  0  0
   -2.4800    0.0210    0.0000 N   0  0  0  0  0  0  0  0  0  0  0  0
   -1.6140    0.5220    0.0000 C   0  0  0  0  0  0  0  0  0  0  0  0
   -1.6150    1.5220    0.0000 C   0  0  0  0  0  0  0  0  0  0  0  0
   -0.7500    2.0220    0.0000 C   0  0  0  0  0  0  0  0  0  0  0  0
    0.1170    1.5230    0.0000 C   0  0  0  0  0  0  0  0  0  0  0  0
    0.9820    2.0230    0.0000 N   0  0  0  0  0  0  0  0  0  0  0  0
    1.8490    1.5240    0.0000 C   0  0  0  0  0  0  0  0  0  0  0  0
    1.8500    0.5240    0.0000 N   0  0  0  0  0  0  0  0  0  0  0  0
    0.9840    0.0240    0.0000 C   0  0  0  0  0  0  0  0  0  0  0  0
    0.9850   -0.9760    0.0000 N   0  0  0  0  0  0  0  0  0  0  0  0
    1.8510   -1.4760    0.0000 C   0  0  0  0  0  0  0  0  0  0  0  0
    1.8520   -2.4760    0.0000 C   0  0  0  0  0  0  0  0  0  0  0  0
    2.7180   -2.9750    0.0000 C   0  0  0  0  0  0  0  0  0  0  0  0
    3.5840   -2.4740    0.0000 C   0  0  0  0  0  0  0  0  0  0  0  0
    3.5830   -1.4740    0.0000 C   0  0  0  0  0  0  0  0  0  0  0  0
    2.7170   -0.9750    0.0000 C   0  0  0  0  0  0  0  0  0  0  0  0
    0.1180    0.5230    0.0000 C   0  0  0  0  0  0  0  0  0  0  0  0
   -0.7480    0.0220    0.0000 C   0  0  0  0  0  0  0  0  0  0  0  0
  1  2  2  0  0  0  0
  2  3  1  0  0  0  0
  3  4  2  0  0  0  0
  3  5  1  0  0  0  0
  5  6  1  0  0  0  0
  6  7  1  0  0  0  0
  6 22  2  0  0  0  0
  7  8  2  0  0  0  0
  8  9  1  0  0  0  0
  9 10  1  0  0  0  0
  9 21  2  0  0  0  0
 10 11  2  0  0  0  0
 11 12  1  0  0  0  0
 12 13  2  0  0  0  0
 13 14  1  0  0  0  0
 13 21  1  0  0  0  0
 14 15  1  0  0  0  0
 15 16  1  0  0  0  0
 15 20  2  0  0  0  0
 16 17  2  0  0  0  0
 17 18  1  0  0  0  0
 18 19  2  0  0  0  0
 19 20  1  0  0  0  0
 21 22  1  0  0  0  0
M  END
> <name>
cSrc-2hwo

> <label>
1

$$$$
cSrc-2hwp
  -OEChem-10082421392D

 23 25  0     0  0  0  0  0  0999 V2000
   -5.1970    0.6920    0.0000 C   0  0  0  0  0  0  0  0  0  0  0  0
   -4.3300    0.1920    0.0000 C   0  0  0  0  0  0  0  0  0  0  0  0
   -3.4650    0.6930    0.0000 C   0  0  0  0  0  0  0  0  0  0  0  0
   -3.4650    1.6930    0.0000 O   0  0  0  0  0  0  0  0  0  0  0  0
   -2.5980    0.1940    0.0000 N   0  0  0  0  0  0  0  0  0  0  0  0
   -1.7330    0.6940    0.0000 C   0  0  0  0  0  0  0  0  0  0  0  0
   -1.7330    1.6940    0.0000 C   0  0  0  0  0  0  0  0  0  0  0  0
   -0.8680    2.1950    0.0000 C   0  0  0  0  0  0  0  0  0  0  0  0
   -0.0010    1.6960    0.0000 C   0  0  0  0  0  0  0  0  0  0  0  0
    0.8640    2.1960    0.0000 N   0  0  0  0  0  0  0  0  0  0  0  0
    1.7310    1.6970    0.0000 C   0  0  0  0  0  0  0  0  0  0  0  0
    1.7320    0.6970    0.0000 N   0  0  0  0  0  0  0  0  0  0  0  0
    0.8660    0.1960    0.0000 C   0  0  0  0  0  0  0  0  0  0  0  0
    0.8670   -0.8040    0.0000 N   0  0  0  0  0  0  0  0  0  0  0  0
    1.7330   -1.3030    0.0000 C   0  0  0  0  0  0  0  0  0  0  0  0
    2.5990   -0.8020    0.0000 C   0  0  0  0  0  0  0  0  0  0  0  0
    3.4650   -1.3020    0.0000 C   0  0  0  0  0  0  0  0  0  0  0  0
    3.4660   -2.3020    0.0000 C   0  0  0  0  0  0  0  0  0  0  0  0
    2.6000   -2.8020    0.0000 C   0  0  0  0  0  0  0  0  0  0  0  0
    2.6010   -3.8020    0.0000 Br  0  0  0  0  0  0  0  0  0  0  0  0
    1.7340   -2.3030    0.0000 C   0  0  0  0  0  0  0  0  0  0  0  0
   -0.0010    0.6960    0.0000 C   0  0  0  0  0  0  0  0  0  0  0  0
   -0.8660    0.1950    0.0000 C   0  0  0  0  0  0  0  0  0  0  0  0
  1  2  2  0  0  0  0
  2  3  1  0  0  0  0
  3  4  2  0  0  0  0
  3  5  1  0  0  0  0
  5  6  1  0  0  0  0
  6  7  1  0  0  0  0
  6 23  2  0  0  0  0
  7  8  2  0  0  0  0
  8  9  1  0  0  0  0
  9 10  1  0  0  0  0
  9 22  2  0  0  0  0
 10 11  2  0  0  0  0
 11 12  1  0  0  0  0
 12 13  2  0  0  0  0
 13 14  1  0  0  0  0
 13 22  1  0  0  0  0
 14 15  1  0  0  0  0
 15 16  1  0  0  0  0
 15 21  2  0  0  0  0
 16 17  2  0  0  0  0
 17 18  1  0  0  0  0
 18 19  2  0  0  0  0
 19 20  1  0  0  0  0
 19 21  1  0  0  0  0
 22 23  1  0  0  0  0
M  END
> <name>
cSrc-2hwp

> <label>
1

$$$$
cSrc-2qlq
  -OEChem-10082421392D

 27 29  0     0  0  0  0  0  0999 V2000
   -6.7680    0.0870    0.0000 C   0  0  0  0  0  0  0  0  0  0  0  0
   -5.9020    0.5880    0.0000 N   0  3  0  0  0  0  0  0  0  0  0  0
   -5.9030    1.5880    0.0000 C   0  0  0  0  0  0  0  0  0  0  0  0
   -5.0360    0.0890    0.0000 C   0  0  0  0  0  0  0  0  0  0  0  0
   -4.1700    0.5890    0.0000 C   0  0  0  0  0  0  0  0  0  0  0  0
   -3.3040    0.0900    0.0000 C   0  0  0  0  0  0  0  0  0  0  0  0
   -2.4380    0.5910    0.0000 C   0  0  0  0  0  0  0  0  0  0  0  0
   -2.4390    1.5910    0.0000 O   0  0  0  0  0  0  0  0  0  0  0  0
   -1.5720    0.0910    0.0000 N   0  0  0  0  0  0  0  0  0  0  0  0
   -0.7060    0.5920    0.0000 C   0  0  0  0  0  0  0  0  0  0  0  0
   -0.7070    1.5920    0.0000 C   0  0  0  0  0  0  0  0  0  0  0  0
    0.1590    2.0930    0.0000 C   0  0  0  0  0  0  0  0  0  0  0  0
    1.0250    1.5940    0.0000 C   0  0  0  0  0  0  0  0  0  0  0  0
    1.8910    2.0940    0.0000 N   0  0  0  0  0  0  0  0  0  0  0  0
    2.7570    1.5950    0.0000 C   0  0  0  0  0  0  0  0  0  0  0  0
    2.7580    0.5950    0.0000 N   0  0  0  0  0  0  0  0  0  0  0  0
    1.8920    0.0940    0.0000 C   0  0  0  0  0  0  0  0  0  0  0  0
    1.8930   -0.9060    0.0000 N   0  0  0  0  0  0  0  0  0  0  0  0
    2.7600   -1.4050    0.0000 C   0  0  0  0  0  0  0  0  0  0  0  0
    3.6250   -0.9050    0.0000 C   0  0  0  0  0  0  0  0  0  0  0  0
    4.4920   -1.4040    0.0000 C   0  0  0  0  0  0  0  0  0  0  0  0
    4.4920   -2.4040    0.0000 C   0  0  0  0  0  0  0  0  0  0  0  0
    3.6270   -2.9040    0.0000 C   0  0  0  0  0  0  0  0  0  0  0  0
    3.6280   -3.9040    0.0000 Br  0  0  0  0  0  0  0  0  0  0  0  0
    2.7600   -2.4050    0.0000 C   0  0  0  0  0  0  0  0  0  0  0  0
    1.0260    0.5930    0.0000 C   0  0  0  0  0  0  0  0  0  0  0  0
    0.1600    0.0930    0.0000 C   0  0  0  0  0  0  0  0  0  0  0  0
  1  2  1  0  0  0  0
  2  3  1  0  0  0  0
  2  4  1  0  0  0  0
  4  5  1  0  0  0  0
  5  6  2  0  0  0  0
  6  7  1  0  0  0  0
  7  8  2  0  0  0  0
  7  9  1  0  0  0  0
  9 10  1  0  0  0  0
 10 11  2  0  0  0  0
 10 27  1  0  0  0  0
 11 12  1  0  0  0  0
 12 13  2  0  0  0  0
 13 14  1  0  0  0  0
 13 26  1  0  0  0  0
 14 15  2  0  0  0  0
 15 16  1  0  0  0  0
 16 17  2  0  0  0  0
 17 18  1  0  0  0  0
 17 26  1  0  0  0  0
 18 19  1  0  0  0  0
 19 20  1  0  0  0  0
 19 25  2  0  0  0  0
 20 21  2  0  0  0  0
 21 22  1  0  0  0  0
 22 23  2  0  0  0  0
 23 24  1  0  0  0  0
 23 25  1  0  0  0  0
 26 27  2  0  0  0  0
M  CHG  1   2   1
M  END
> <name>
cSrc-2qlq

> <label>
1

$$$$
cSrc-2qq7
  -OEChem-10082421392D

 27 29  0     0  0  0  0  0  0999 V2000
   -5.1660    2.8660    0.0000 C   0  0  0  0  0  0  0  0  0  0  0  0
   -5.1650    1.8660    0.0000 N   0  3  0  0  0  0  0  0  0  0  0  0
   -6.0310    1.3660    0.0000 C   0  0  0  0  0  0  0  0  0  0  0  0
   -4.2990    1.3670    0.0000 C   0  0  0  0  0  0  0  0  0  0  0  0
   -4.2980    0.3670    0.0000 C   0  0  0  0  0  0  0  0  0  0  0  0
   -3.4320   -0.1320    0.0000 C   0  0  0  0  0  0  0  0  0  0  0  0
   -2.5660    0.3680    0.0000 C   0  0  0  0  0  0  0  0  0  0  0  0
   -2.5670    1.3680    0.0000 O   0  0  0  0  0  0  0  0  0  0  0  0
   -1.7000   -0.1310    0.0000 N   0  0  0  0  0  0  0  0  0  0  0  0
   -0.8340    0.3700    0.0000 C   0  0  0  0  0  0  0  0  0  0  0  0
   -0.8350    1.3700    0.0000 C   0  0  0  0  0  0  0  0  0  0  0  0
    0.0310    1.8700    0.0000 C   0  0  0  0  0  0  0  0  0  0  0  0
    0.8970    1.3710    0.0000 C   0  0  0  0  0  0  0  0  0  0  0  0
    1.7630    1.8720    0.0000 N   0  0  0  0  0  0  0  0  0  0  0  0
    2.6290    1.3720    0.0000 C   0  0  0  0  0  0  0  0  0  0  0  0
    2.6300    0.3720    0.0000 N   0  0  0  0  0  0  0  0  0  0  0  0
    1.7640   -0.1280    0.0000 C   0  0  0  0  0  0  0  0  0  0  0  0
    1.7650   -1.1280    0.0000 N   0  0  0  0  0  0  0  0  0  0  0  0
    2.6310   -1.6280    0.0000 C   0  0  0  0  0  0  0  0  0  0  0  0
    3.4970   -1.1270    0.0000 C   0  0  0  0  0  0  0  0  0  0  0  0
    4.3630   -1.6260    0.0000 C   0  0  0  0  0  0  0  0  0  0  0  0
    4.3640   -2.6260    0.0000 C   0  0  0  0  0  0  0  0  0  0  0  0
    3.4990   -3.1270    0.0000 C   0  0  0  0  0  0  0  0  0  0  0  0
    3.4990   -4.1270    0.0000 Br  0  0  0  0  0  0  0  0  0  0  0  0
    2.6320   -2.6280    0.0000 C   0  0  0  0  0  0  0  0  0  0  0  0
    0.8980    0.3710    0.0000 C   0  0  0  0  0  0  0  0  0  0  0  0
    0.0320   -0.1300    0.0000 C   0  0  0  0  0  0  0  0  0  0  0  0
  1  2  1  0  0  0  0
  2  3  1  0  0  0  0
  2  4  1  0  0  0  0
  4  5  1  0  0  0  0
  5  6  2  0  0  0  0
  6  7  1  0  0  0  0
  7  8  2  0  0  0  0
  7  9  1  0  0  0  0
  9 10  1  0  0  0  0
 10 11  2  0  0  0  0
 10 27  1  0  0  0  0
 11 12  1  0  0  0  0
 12 13  2  0  0  0  0
 13 14  1  0  0  0  0
 13 26  1  0  0  0  0
 14 15  2  0  0  0  0
 15 16  1  0  0  0  0
 16 17  2  0  0  0  0
 17 18  1  0  0  0  0
 17 26  1  0  0  0  0
 18 19  1  0  0  0  0
 19 20  1  0  0  0  0
 19 25  2  0  0  0  0
 20 21  2  0  0  0  0
 21 22  1  0  0  0  0
 22 23  2  0  0  0  0
 23 24  1  0  0  0  0
 23 25  1  0  0  0  0
 26 27  2  0  0  0  0
M  CHG  1   2   1
M  END
> <name>
cSrc-2qq7

> <label>
1

$$$$
cSrc-3lok
  -OEChem-10082421393D

 36 38  0     0  0  0  0  0  0999 V2000
    6.7880    0.6440    1.3930 C   0  0  0  0  0  0  0  0  0  0  0  0
    7.1530    0.2050    2.3100 H   0  0  0  0  0  0  0  0  0  0  0  0
    7.4560    1.2150    0.7650 H   0  0  0  0  0  0  0  0  0  0  0  0
    5.5130    0.4820    1.0380 C   0  0  0  0  0  0  0  0  0  0  0  0
    5.1360    0.9170    0.1240 H   0  0  0  0  0  0  0  0  0  0  0  0
    4.6270   -0.3050    1.9230 C   0  0  0  0  0  0  0  0  0  0  0  0
    5.0390   -0.7860    2.9780 O   0  0  0  0  0  0  0  0  0  0  0  0
    3.3190   -0.4360    1.5200 N   0  0  0  0  0  0  0  0  0  0  0  0
    2.7200   -0.8570    2.2170 H   0  0  0  0  0  0  0  0  0  0  0  0
    2.6550   -0.1020    0.3380 C   0  0  0  0  0  0  0  0  0  0  0  0
    3.2860    0.3250   -0.8200 C   0  0  0  0  0  0  0  0  0  0  0  0
    4.3610    0.4310   -0.8410 H   0  0  0  0  0  0  0  0  0  0  0  0
    2.5340    0.6190   -1.9570 C   0  0  0  0  0  0  0  0  0  0  0  0
    3.0430    0.9510   -2.8500 H   0  0  0  0  0  0  0  0  0  0  0  0
    1.1510    0.4990   -1.9760 C   0  0  0  0  0  0  0  0  0  0  0  0
    0.4750    0.8010   -3.0860 N   0  0  0  0  0  0  0  0  0  0  0  0
   -0.8580    0.6730   -3.0330 C   0  0  0  0  0  0  0  0  0  0  0  0
   -1.4070    0.9110   -3.9320 H   0  0  0  0  0  0  0  0  0  0  0  0
   -1.5740    0.2780   -1.9720 N   0  0  0  0  0  0  0  0  0  0  0  0
   -0.8870   -0.0240   -0.8520 C   0  0  0  0  0  0  0  0  0  0  0  0
   -1.5500   -0.4440    0.3370 N   0  0  0  0  0  0  0  0  0  0  0  0
   -0.9520   -0.7810    1.0780 H   0  0  0  0  0  0  0  0  0  0  0  0
   -2.9310   -0.4500    0.6120 C   0  0  0  0  0  0  0  0  0  0  0  0
   -3.3590   -0.9800    1.8350 C   0  0  0  0  0  0  0  0  0  0  0  0
   -2.6300   -1.3780    2.5250 H   0  0  0  0  0  0  0  0  0  0  0  0
   -4.7110   -1.0030    2.1780 C   0  0  0  0  0  0  0  0  0  0  0  0
   -5.0220   -1.4200    3.1250 H   0  0  0  0  0  0  0  0  0  0  0  0
   -5.6570   -0.4870    1.2990 C   0  0  0  0  0  0  0  0  0  0  0  0
   -6.7060   -0.5020    1.5570 H   0  0  0  0  0  0  0  0  0  0  0  0
   -5.2400    0.0470    0.0860 C   0  0  0  0  0  0  0  0  0  0  0  0
   -6.5120    0.7530   -1.1090 Br  0  0  0  0  0  0  0  0  0  0  0  0
   -3.8920    0.0690   -0.2570 C   0  0  0  0  0  0  0  0  0  0  0  0
   -3.5870    0.4910   -1.2030 H   0  0  0  0  0  0  0  0  0  0  0  0
    0.5110    0.0650   -0.8090 C   0  0  0  0  0  0  0  0  0  0  0  0
    1.2720   -0.2410    0.3340 C   0  0  0  0  0  0  0  0  0  0  0  0
    0.7720   -0.5890    1.2260 H   0  0  0  0  0  0  0  0  0  0  0  0
  1  2  1  0  0  0  0
  1  3  1  0  0  0  0
  1  4  2  0  0  0  0
  4  5  1  0  0  0  0
  4  6  1  0  0  0  0
  6  7  2  0  0  0  0
  6  8  1  0  0  0  0
  8  9  1  0  0  0  0
  8 10  1  0  0  0  0
 10 11  1  0  0  0  0
 10 35  2  0  0  0  0
 11 12  1  0  0  0  0
 11 13  2  0  0  0  0
 13 14  1  0  0  0  0
 13 15  1  0  0  0  0
 15 16  1  0  0  0  0
 15 34  2  0  0  0  0
 16 17  2  0  0  0  0
 17 18  1  0  0  0  0
 17 19  1  0  0  0  0
 19 20  2  0  0  0  0
 20 21  1  0  0  0  0
 20 34  1  0  0  0  0
 21 22  1  0  0  0  0
 21 23  1  0  0  0  0
 23 24  1  0  0  0  0
 23 32  2  0  0  0  0
 24 25  1  0  0  0  0
 24 26  2  0  0  0  0
 26 27  1  0  0  0  0
 26 28  1  0  0  0  0
 28 29  1  0  0  0  0
 28 30  2  0  0  0  0
 30 31  1  0  0  0  0
 30 32  1  0  0  0  0
 32 33  1  0  0  0  0
 34 35  1  0  0  0  0
 35 36  1  0  0  0  0
M  END
> <name>
cSrc-3lok

> <label>
1

$$$$
EGFR-2j5e
  -OEChem-10082421392D

 22 24  0     0  0  0  0  0  0999 V2000
   -2.5940   -1.5070    0.0000 C   0  0  0  0  0  0  0  0  0  0  0  0
   -3.8910   -2.2600    0.0000 C   0  0  0  0  0  0  0  0  0  0  0  0
   -5.1920   -1.5140    0.0000 C   0  0  0  0  0  0  0  0  0  0  0  0
   -5.1960   -0.0140    0.0000 O   0  0  0  0  0  0  0  0  0  0  0  0
   -6.4890   -2.2670    0.0000 N   0  0  0  0  0  0  0  0  0  0  0  0
   -7.7900   -1.5200    0.0000 C   0  0  0  0  0  0  0  0  0  0  0  0
   -7.7940   -0.0200    0.0000 C   0  0  0  0  0  0  0  0  0  0  0  0
   -9.0950    0.7260    0.0000 C   0  0  0  0  0  0  0  0  0  0  0  0
  -10.3920   -0.0270    0.0000 C   0  0  0  0  0  0  0  0  0  0  0  0
  -11.6930    0.7190    0.0000 N   0  0  0  0  0  0  0  0  0  0  0  0
  -12.9900   -0.0340    0.0000 C   0  0  0  0  0  0  0  0  0  0  0  0
  -12.9860   -1.5340    0.0000 N   0  0  0  0  0  0  0  0  0  0  0  0
  -11.6850   -2.2800    0.0000 C   0  0  0  0  0  0  0  0  0  0  0  0
  -11.6820   -3.7800    0.0000 N   0  0  0  0  0  0  0  0  0  0  0  0
  -12.9790   -4.5340    0.0000 C   0  0  0  0  0  0  0  0  0  0  0  0
  -14.2800   -3.7870    0.0000 C   0  0  0  0  0  0  0  0  0  0  0  0
  -15.5770   -4.5410    0.0000 C   0  0  0  0  0  0  0  0  0  0  0  0
  -15.5730   -6.0410    0.0000 C   0  0  0  0  0  0  0  0  0  0  0  0
  -14.2720   -6.7870    0.0000 C   0  0  0  0  0  0  0  0  0  0  0  0
  -12.9750   -6.0340    0.0000 C   0  0  0  0  0  0  0  0  0  0  0  0
  -10.3880   -1.5270    0.0000 C   0  0  0  0  0  0  0  0  0  0  0  0
   -9.0870   -2.2740    0.0000 C   0  0  0  0  0  0  0  0  0  0  0  0
  1  2  2  0  0  0  0
  2  3  1  0  0  0  0
  3  4  2  0  0  0  0
  3  5  1  0  0  0  0
  5  6  1  0  0  0  0
  6  7  1  0  0  0  0
  6 22  2  0  0  0  0
  7  8  2  0  0  0  0
  8  9  1  0  0  0  0
  9 10  1  0  0  0  0
  9 21  2  0  0  0  0
 10 11  2  0  0  0  0
 11 12  1  0  0  0  0
 12 13  2  0  0  0  0
 13 14  1  0  0  0  0
 13 21  1  0  0  0  0
 14 15  1  0  0  0  0
 15 16  1  0  0  0  0
 15 20  2  0  0  0  0
 16 17  2  0  0  0  0
 17 18  1  0  0  0  0
 18 19  2  0  0  0  0
 19 20  1  0  0  0  0
 21 22  1  0  0  0  0
M  END
> <name>
EGFR-2j5e

> <label>
1

$$$$
EGFR-2j5f
  -OEChem-10082421393D

 32 34  0     0  0  0  0  0  0999 V2000
   -2.7610   -1.4710   -0.0340 C   0  0  0  0  0  0  0  0  0  0  0  0
   -3.9150   -2.1510   -0.0330 C   0  0  0  0  0  0  0  0  0  0  0  0
   -5.2220   -1.4300    0.0260 C   0  0  0  0  0  0  0  0  0  0  0  0
   -5.2690   -0.2060    0.0630 O   0  0  0  0  0  0  0  0  0  0  0  0
   -6.2920   -2.3110    0.0370 N   0  0  0  0  0  0  0  0  0  0  0  0
   -7.6650   -1.9820    0.0960 C   0  0  0  0  0  0  0  0  0  0  0  0
   -8.5830   -3.0300    0.1110 C   0  0  0  0  0  0  0  0  0  0  0  0
   -8.2320   -4.0510    0.0820 H   0  0  0  0  0  0  0  0  0  0  0  0
   -9.9570   -2.7670    0.1630 C   0  0  0  0  0  0  0  0  0  0  0  0
  -10.6490   -3.5960    0.1680 H   0  0  0  0  0  0  0  0  0  0  0  0
  -10.4560   -1.4720    0.2080 C   0  0  0  0  0  0  0  0  0  0  0  0
  -11.7810   -1.2980    0.2430 N   0  0  0  0  0  0  0  0  0  0  0  0
  -12.2180   -0.0340    0.2700 C   0  0  0  0  0  0  0  0  0  0  0  0
  -13.2880    0.1100    0.2880 H   0  0  0  0  0  0  0  0  0  0  0  0
  -11.4610    1.0660    0.2770 N   0  0  0  0  0  0  0  0  0  0  0  0
  -10.1240    0.8860    0.2670 C   0  0  0  0  0  0  0  0  0  0  0  0
   -9.2830    2.0200    0.3020 N   0  0  0  0  0  0  0  0  0  0  0  0
   -8.4080    1.8800    0.7860 H   0  0  0  0  0  0  0  0  0  0  0  0
   -9.4590    3.3110   -0.2250 C   0  0  0  0  0  0  0  0  0  0  0  0
  -10.5110    3.6510   -1.0860 C   0  0  0  0  0  0  0  0  0  0  0  0
  -11.2330    2.8970   -1.3640 H   0  0  0  0  0  0  0  0  0  0  0  0
  -10.6420    4.9480   -1.5910 C   0  0  0  0  0  0  0  0  0  0  0  0
  -11.4610    5.1880   -2.2530 H   0  0  0  0  0  0  0  0  0  0  0  0
   -9.7210    5.9320   -1.2410 C   0  0  0  0  0  0  0  0  0  0  0  0
   -9.8200    6.9350   -1.6290 H   0  0  0  0  0  0  0  0  0  0  0  0
   -8.6710    5.6090   -0.3870 C   0  0  0  0  0  0  0  0  0  0  0  0
   -7.4120    6.9360    0.0940 Br  0  0  0  0  0  0  0  0  0  0  0  0
   -8.5370    4.3130    0.1180 C   0  0  0  0  0  0  0  0  0  0  0  0
   -7.7160    4.0800    0.7800 H   0  0  0  0  0  0  0  0  0  0  0  0
   -9.5490   -0.4030    0.2090 C   0  0  0  0  0  0  0  0  0  0  0  0
   -8.1540   -0.6770    0.1390 C   0  0  0  0  0  0  0  0  0  0  0  0
   -7.4570    0.1480    0.1190 H   0  0  0  0  0  0  0  0  0  0  0  0
  1  2  2  0  0  0  0
  2  3  1  0  0  0  0
  3  4  2  0  0  0  0
  3  5  1  0  0  0  0
  5  6  1  0  0  0  0
  6  7  1  0  0  0  0
  6 31  2  0  0  0  0
  7  8  1  0  0  0  0
  7  9  2  0  0  0  0
  9 10  1  0  0  0  0
  9 11  1  0  0  0  0
 11 12  1  0  0  0  0
 11 30  2  0  0  0  0
 12 13  2  0  0  0  0
 13 14  1  0  0  0  0
 13 15  1  0  0  0  0
 15 16  2  0  0  0  0
 16 17  1  0  0  0  0
 16 30  1  0  0  0  0
 17 18  1  0  0  0  0
 17 19  1  0  0  0  0
 19 20  1  0  0  0  0
 19 28  2  0  0  0  0
 20 21  1  0  0  0  0
 20 22  2  0  0  0  0
 22 23  1  0  0  0  0
 22 24  1  0  0  0  0
 24 25  1  0  0  0  0
 24 26  2  0  0  0  0
 26 27  1  0  0  0  0
 26 28  1  0  0  0  0
 28 29  1  0  0  0  0
 30 31  1  0  0  0  0
 31 32  1  0  0  0  0
M  END
> <name>
EGFR-2j5f

> <label>
1

$$$$
EGFR-2jiv
  -OEChem-10082421392D

 40 43  0     0  0  0  0  0  0999 V2000
   -3.8360    4.2840    0.0000 C   0  0  0  0  0  0  0  0  0  0  0  0
   -2.9690    3.7850    0.0000 C   0  0  0  0  0  0  0  0  0  0  0  0
   -2.9680    2.7850    0.0000 O   0  0  0  0  0  0  0  0  0  0  0  0
   -2.1020    2.2860    0.0000 C   0  0  0  0  0  0  0  0  0  0  0  0
   -1.2360    2.7860    0.0000 C   0  0  0  0  0  0  0  0  0  0  0  0
   -0.3700    2.2870    0.0000 C   0  0  0  0  0  0  0  0  0  0  0  0
    0.4960    2.7880    0.0000 N   0  0  0  0  0  0  0  0  0  0  0  0
    1.3620    2.2880    0.0000 C   0  0  0  0  0  0  0  0  0  0  0  0
    1.3630    1.2880    0.0000 C   0  0  0  0  0  0  0  0  0  0  0  0
    2.2290    0.7890    0.0000 C   0  0  0  0  0  0  0  0  0  0  0  0
    3.0960    0.2900    0.0000 N   0  0  0  0  0  0  0  0  0  0  0  0
    0.4970    0.7880    0.0000 C   0  0  0  0  0  0  0  0  0  0  0  0
    0.4980   -0.2120    0.0000 N   0  0  0  0  0  0  0  0  0  0  0  0
    1.3640   -0.7120    0.0000 C   0  0  0  0  0  0  0  0  0  0  0  0
    2.2300   -0.2110    0.0000 C   0  0  0  0  0  0  0  0  0  0  0  0
    3.0960   -0.7100    0.0000 C   0  0  0  0  0  0  0  0  0  0  0  0
    3.0970   -1.7100    0.0000 C   0  0  0  0  0  0  0  0  0  0  0  0
    3.9640   -2.2090    0.0000 O   0  0  0  0  0  0  0  0  0  0  0  0
    3.9640   -3.2090    0.0000 C   0  0  0  0  0  0  0  0  0  0  0  0
    4.8310   -3.7090    0.0000 C   0  0  0  0  0  0  0  0  0  0  0  0
    5.6960   -3.2080    0.0000 C   0  0  0  0  0  0  0  0  0  0  0  0
    6.5630   -3.7070    0.0000 C   0  0  0  0  0  0  0  0  0  0  0  0
    6.5640   -4.7070    0.0000 C   0  0  0  0  0  0  0  0  0  0  0  0
    5.6980   -5.2080    0.0000 C   0  0  0  0  0  0  0  0  0  0  0  0
    4.8320   -4.7090    0.0000 N   0  0  0  0  0  0  0  0  0  0  0  0
    2.2320   -2.2110    0.0000 C   0  0  0  0  0  0  0  0  0  0  0  0
    2.2320   -3.2110    0.0000 Cl  0  0  0  0  0  0  0  0  0  0  0  0
    1.3650   -1.7120    0.0000 C   0  0  0  0  0  0  0  0  0  0  0  0
   -0.3690    1.2870    0.0000 C   0  0  0  0  0  0  0  0  0  0  0  0
   -1.2350    0.7870    0.0000 C   0  0  0  0  0  0  0  0  0  0  0  0
   -2.1010    1.2860    0.0000 C   0  0  0  0  0  0  0  0  0  0  0  0
   -2.9670    0.7850    0.0000 N   0  0  0  0  0  0  0  0  0  0  0  0
   -3.8330    1.2840    0.0000 C   0  0  0  0  0  0  0  0  0  0  0  0
   -3.8340    2.2840    0.0000 O   0  0  0  0  0  0  0  0  0  0  0  0
   -4.6990    0.7840    0.0000 C   0  0  0  0  0  0  0  0  0  0  0  0
   -5.5650    1.2830    0.0000 C   0  0  0  0  0  0  0  0  0  0  0  0
   -6.4310    0.7820    0.0000 C   0  0  0  0  0  0  0  0  0  0  0  0
   -7.2970    1.2820    0.0000 N   0  3  0  0  0  0  0  0  0  0  0  0
   -8.1630    0.7810    0.0000 C   0  0  0  0  0  0  0  0  0  0  0  0
   -7.2980    2.2820    0.0000 C   0  0  0  0  0  0  0  0  0  0  0  0
  1  2  1  0  0  0  0
  2  3  1  0  0  0  0
  3  4  1  0  0  0  0
  4  5  1  0  0  0  0
  4 31  2  0  0  0  0
  5  6  2  0  0  0  0
  6  7  1  0  0  0  0
  6 29  1  0  0  0  0
  7  8  2  0  0  0  0
  8  9  1  0  0  0  0
  9 10  1  0  0  0  0
  9 12  2  0  0  0  0
 10 11  3  0  0  0  0
 12 13  1  0  0  0  0
 12 29  1  0  0  0  0
 13 14  1  0  0  0  0
 14 15  2  0  0  0  0
 14 28  1  0  0  0  0
 15 16  1  0  0  0  0
 16 17  2  0  0  0  0
 17 18  1  0  0  0  0
 17 26  1  0  0  0  0
 18 19  1  0  0  0  0
 19 20  1  0  0  0  0
 20 21  1  0  0  0  0
 20 25  2  0  0  0  0
 21 22  2  0  0  0  0
 22 23  1  0  0  0  0
 23 24  2  0  0  0  0
 24 25  1  0  0  0  0
 26 27  1  0  0  0  0
 26 28  2  0  0  0  0
 29 30  2  0  0  0  0
 30 31  1  0  0  0  0
 31 32  1  0  0  0  0
 32 33  1  0  0  0  0
 33 34  2  0  0  0  0
 33 35  1  0  0  0  0
 35 36  2  0  0  0  0
 36 37  1  0  0  0  0
 37 38  1  0  0  0  0
 38 39  1  0  0  0  0
 38 40  1  0  0  0  0
M  CHG  1  38   1
M  END
> <name>
EGFR-2jiv

> <label>
1

$$$$
EGFR-3ika
  -OEChem-10082421392D

 35 38  0     0  0  0  0  0  0999 V2000
    4.8040    5.3960    0.0000 C   0  0  0  0  0  0  0  0  0  0  0  0
    3.9380    4.8970    0.0000 C   0  0  0  0  0  0  0  0  0  0  0  0
    3.9370    3.8970    0.0000 C   0  0  0  0  0  0  0  0  0  0  0  0
    4.8030    3.3960    0.0000 O   0  0  0  0  0  0  0  0  0  0  0  0
    3.0710    3.3980    0.0000 N   0  0  0  0  0  0  0  0  0  0  0  0
    3.0700    2.3980    0.0000 C   0  0  0  0  0  0  0  0  0  0  0  0
    3.9360    1.8970    0.0000 C   0  0  0  0  0  0  0  0  0  0  0  0
    3.9350    0.8970    0.0000 C   0  0  0  0  0  0  0  0  0  0  0  0
    3.0680    0.3980    0.0000 C   0  0  0  0  0  0  0  0  0  0  0  0
    2.2030    0.8980    0.0000 C   0  0  0  0  0  0  0  0  0  0  0  0
    1.3360    0.3990    0.0000 O   0  0  0  0  0  0  0  0  0  0  0  0
    1.3360   -0.6010    0.0000 C   0  0  0  0  0  0  0  0  0  0  0  0
    0.4690   -1.1000    0.0000 N   0  0  0  0  0  0  0  0  0  0  0  0
    0.4680   -2.1000    0.0000 C   0  0  0  0  0  0  0  0  0  0  0  0
   -0.3980   -2.6000    0.0000 N   0  0  0  0  0  0  0  0  0  0  0  0
   -1.2630   -2.0990    0.0000 C   0  0  0  0  0  0  0  0  0  0  0  0
   -1.2630   -1.0990    0.0000 C   0  0  0  0  0  0  0  0  0  0  0  0
   -2.1280   -0.5980    0.0000 C   0  0  0  0  0  0  0  0  0  0  0  0
   -2.9950   -1.0980    0.0000 C   0  0  0  0  0  0  0  0  0  0  0  0
   -3.8600   -0.5970    0.0000 N   0  0  0  0  0  0  0  0  0  0  0  0
   -4.7270   -1.0960    0.0000 C   0  0  0  0  0  0  0  0  0  0  0  0
   -5.5920   -0.5960    0.0000 C   0  0  0  0  0  0  0  0  0  0  0  0
   -5.5920    0.4040    0.0000 N   0  3  0  0  0  0  0  0  0  0  0  0
   -6.4570    0.9050    0.0000 C   0  0  0  0  0  0  0  0  0  0  0  0
   -4.7250    0.9040    0.0000 C   0  0  0  0  0  0  0  0  0  0  0  0
   -3.8600    0.4030    0.0000 C   0  0  0  0  0  0  0  0  0  0  0  0
   -2.9960   -2.0980    0.0000 C   0  0  0  0  0  0  0  0  0  0  0  0
   -2.1300   -2.5980    0.0000 C   0  0  0  0  0  0  0  0  0  0  0  0
   -2.1310   -3.5980    0.0000 O   0  0  0  0  0  0  0  0  0  0  0  0
   -1.2650   -4.0990    0.0000 C   0  0  0  0  0  0  0  0  0  0  0  0
    1.3340   -2.6010    0.0000 N   0  0  0  0  0  0  0  0  0  0  0  0
    2.2010   -2.1020    0.0000 C   0  0  0  0  0  0  0  0  0  0  0  0
    2.2010   -1.1020    0.0000 C   0  0  0  0  0  0  0  0  0  0  0  0
    3.0680   -0.6020    0.0000 Cl  0  0  0  0  0  0  0  0  0  0  0  0
    2.2040    1.8980    0.0000 C   0  0  0  0  0  0  0  0  0  0  0  0
  1  2  2  0  0  0  0
  2  3  1  0  0  0  0
  3  4  2  0  0  0  0
  3  5  1  0  0  0  0
  5  6  1  0  0  0  0
  6  7  1  0  0  0  0
  6 35  2  0  0  0  0
  7  8  2  0  0  0  0
  8  9  1  0  0  0  0
  9 10  2  0  0  0  0
 10 11  1  0  0  0  0
 10 35  1  0  0  0  0
 11 12  1  0  0  0  0
 12 13  1  0  0  0  0
 12 33  2  0  0  0  0
 13 14  2  0  0  0  0
 14 15  1  0  0  0  0
 14 31  1  0  0  0  0
 15 16  1  0  0  0  0
 16 17  1  0  0  0  0
 16 28  2  0  0  0  0
 17 18  2  0  0  0  0
 18 19  1  0  0  0  0
 19 20  1  0  0  0  0
 19 27  2  0  0  0  0
 20 21  1  0  0  0  0
 20 26  1  0  0  0  0
 21 22  1  0  0  0  0
 22 23  1  0  0  0  0
 23 24  1  0  0  0  0
 23 25  1  0  0  0  0
 25 26  1  0  0  0  0
 27 28  1  0  0  0  0
 28 29  1  0  0  0  0
 29 30  1  0  0  0  0
 31 32  2  0  0  0  0
 32 33  1  0  0  0  0
 33 34  1  0  0  0  0
M  CHG  1  23   1
M  END
> <name>
EGFR-3ika

> <label>
1

$$$$
JNK-3v6s
  -OEChem-10082421392D

 37 40  0     0  0  0  0  0  0999 V2000
   -3.5640    8.6690    0.0000 C   0  0  0  0  0  0  0  0  0  0  0  0
   -2.6980    8.1680    0.0000 N   0  3  0  0  0  0  0  0  0  0  0  0
   -1.8320    8.6660    0.0000 C   0  0  0  0  0  0  0  0  0  0  0  0
   -2.7000    7.1680    0.0000 C   0  0  0  0  0  0  0  0  0  0  0  0
   -1.8360    6.6660    0.0000 C   0  0  0  0  0  0  0  0  0  0  0  0
   -1.8380    5.6660    0.0000 C   0  0  0  0  0  0  0  0  0  0  0  0
   -0.9720    5.1640    0.0000 C   0  0  0  0  0  0  0  0  0  0  0  0
   -0.1060    5.6620    0.0000 O   0  0  0  0  0  0  0  0  0  0  0  0
   -0.9750    4.1640    0.0000 N   0  0  0  0  0  0  0  0  0  0  0  0
   -0.1100    3.6620    0.0000 C   0  0  0  0  0  0  0  0  0  0  0  0
    0.7580    4.1610    0.0000 C   0  0  0  0  0  0  0  0  0  0  0  0
    1.6220    3.6590    0.0000 C   0  0  0  0  0  0  0  0  0  0  0  0
    1.6200    2.6590    0.0000 C   0  0  0  0  0  0  0  0  0  0  0  0
    0.7530    2.1600    0.0000 C   0  0  0  0  0  0  0  0  0  0  0  0
    0.7510    1.1610    0.0000 C   0  0  0  0  0  0  0  0  0  0  0  0
   -0.1160    0.6620    0.0000 O   0  0  0  0  0  0  0  0  0  0  0  0
    1.6160    0.6590    0.0000 N   0  0  0  0  0  0  0  0  0  0  0  0
    1.6140   -0.3410    0.0000 C   0  0  0  0  0  0  0  0  0  0  0  0
    2.4790   -0.8430    0.0000 C   0  0  0  0  0  0  0  0  0  0  0  0
    2.4780   -1.8430    0.0000 C   0  0  0  0  0  0  0  0  0  0  0  0
    1.6100   -2.3410    0.0000 C   0  0  0  0  0  0  0  0  0  0  0  0
    1.6080   -3.3410    0.0000 N   0  0  0  0  0  0  0  0  0  0  0  0
    0.7410   -3.8390    0.0000 C   0  0  0  0  0  0  0  0  0  0  0  0
   -0.1240   -3.3380    0.0000 N   0  0  0  0  0  0  0  0  0  0  0  0
   -0.9910   -3.8360    0.0000 C   0  0  0  0  0  0  0  0  0  0  0  0
   -0.9930   -4.8360    0.0000 C   0  0  0  0  0  0  0  0  0  0  0  0
   -0.1280   -5.3380    0.0000 C   0  0  0  0  0  0  0  0  0  0  0  0
   -0.1300   -6.3370    0.0000 C   0  0  0  0  0  0  0  0  0  0  0  0
   -0.9970   -6.8360    0.0000 C   0  0  0  0  0  0  0  0  0  0  0  0
   -0.9990   -7.8360    0.0000 C   0  0  0  0  0  0  0  0  0  0  0  0
   -0.1340   -8.3380    0.0000 C   0  0  0  0  0  0  0  0  0  0  0  0
    0.7330   -7.8390    0.0000 N   0  0  0  0  0  0  0  0  0  0  0  0
    0.7350   -6.8390    0.0000 C   0  0  0  0  0  0  0  0  0  0  0  0
    0.7390   -4.8390    0.0000 N   0  0  0  0  0  0  0  0  0  0  0  0
    0.7450   -1.8390    0.0000 C   0  0  0  0  0  0  0  0  0  0  0  0
    0.7470   -0.8390    0.0000 C   0  0  0  0  0  0  0  0  0  0  0  0
   -0.1120    2.6620    0.0000 C   0  0  0  0  0  0  0  0  0  0  0  0
  1  2  1  0  0  0  0
  2  3  1  0  0  0  0
  2  4  1  0  0  0  0
  4  5  1  0  0  0  0
  5  6  2  0  0  0  0
  6  7  1  0  0  0  0
  7  8  2  0  0  0  0
  7  9  1  0  0  0  0
  9 10  1  0  0  0  0
 10 11  1  0  0  0  0
 10 37  2  0  0  0  0
 11 12  2  0  0  0  0
 12 13  1  0  0  0  0
 13 14  2  0  0  0  0
 14 15  1  0  0  0  0
 14 37  1  0  0  0  0
 15 16  2  0  0  0  0
 15 17  1  0  0  0  0
 17 18  1  0  0  0  0
 18 19  1  0  0  0  0
 18 36  2  0  0  0  0
 19 20  2  0  0  0  0
 20 21  1  0  0  0  0
 21 22  1  0  0  0  0
 21 35  2  0  0  0  0
 22 23  1  0  0  0  0
 23 24  1  0  0  0  0
 23 34  2  0  0  0  0
 24 25  2  0  0  0  0
 25 26  1  0  0  0  0
 26 27  2  0  0  0  0
 27 28  1  0  0  0  0
 27 34  1  0  0  0  0
 28 29  1  0  0  0  0
 28 33  2  0  0  0  0
 29 30  2  0  0  0  0
 30 31  1  0  0  0  0
 31 32  2  0  0  0  0
 32 33  1  0  0  0  0
 35 36  1  0  0  0  0
M  CHG  1   2   1
M  END
> <name>
JNK-3v6s

> <label>
1

$$$$
decoy1
  -OEChem-10082421392D

 29 31  0     0  0  0  0  0  0999 V2000
    3.7680    6.0320    0.0000 C   0  0  0  0  0  0  0  0  0  0  0  0
    2.9010    5.5320    0.0000 O   0  0  0  0  0  0  0  0  0  0  0  0
    2.9000    4.5320    0.0000 C   0  0  0  0  0  0  0  0  0  0  0  0
    2.0340    4.0330    0.0000 C   0  0  0  0  0  0  0  0  0  0  0  0
    2.0330    3.0330    0.0000 C   0  0  0  0  0  0  0  0  0  0  0  0
    2.8990    2.5320    0.0000 C   0  0  0  0  0  0  0  0  0  0  0  0
    2.8980    1.5320    0.0000 N   0  0  0  0  0  0  0  0  0  0  0  0
    2.0310    1.0330    0.0000 S   0  0  0  0  0  0  0  0  0  0  0  0
    2.5310    0.1660    0.0000 O   0  0  0  0  0  0  0  0  0  0  0  0
    1.5320    1.8990    0.0000 O   0  0  0  0  0  0  0  0  0  0  0  0
    1.1650    0.5340    0.0000 C   0  0  0  0  0  0  0  0  0  0  0  0
    1.1640   -0.4660    0.0000 C   0  0  0  0  0  0  0  0  0  0  0  0
    0.2980   -0.9660    0.0000 C   0  0  0  0  0  0  0  0  0  0  0  0
   -0.5680   -0.4650    0.0000 C   0  0  0  0  0  0  0  0  0  0  0  0
   -1.4340   -0.9640    0.0000 C   0  0  0  0  0  0  0  0  0  0  0  0
   -1.4350   -1.9640    0.0000 C   0  0  0  0  0  0  0  0  0  0  0  0
   -2.3010   -2.4640    0.0000 C   0  0  0  0  0  0  0  0  0  0  0  0
   -3.1670   -1.9630    0.0000 O   0  0  0  0  0  0  0  0  0  0  0  0
   -2.3020   -3.4640    0.0000 N   0  0  0  0  0  0  0  0  0  0  0  0
   -3.1680   -3.9630    0.0000 C   0  0  0  0  0  0  0  0  0  0  0  0
   -3.1690   -4.9630    0.0000 C   0  0  0  0  0  0  0  0  0  0  0  0
   -4.0360   -5.4620    0.0000 C   0  0  0  0  0  0  0  0  0  0  0  0
   -4.9010   -4.9620    0.0000 C   0  0  0  0  0  0  0  0  0  0  0  0
   -4.9000   -3.9620    0.0000 C   0  0  0  0  0  0  0  0  0  0  0  0
   -4.0340   -3.4620    0.0000 C   0  0  0  0  0  0  0  0  0  0  0  0
   -0.5670    0.5350    0.0000 C   0  0  0  0  0  0  0  0  0  0  0  0
    0.3000    1.0340    0.0000 C   0  0  0  0  0  0  0  0  0  0  0  0
    3.7650    3.0310    0.0000 C   0  0  0  0  0  0  0  0  0  0  0  0
    3.7660    4.0320    0.0000 C   0  0  0  0  0  0  0  0  0  0  0  0
  1  2  1  0  0  0  0
  2  3  1  0  0  0  0
  3  4  1  0  0  0  0
  3 29  2  0  0  0  0
  4  5  2  0  0  0  0
  5  6  1  0  0  0  0
  6  7  1  0  0  0  0
  6 28  2  0  0  0  0
  7  8  1  0  0  0  0
  8  9  2  0  0  0  0
  8 10  2  0  0  0  0
  8 11  1  0  0  0  0
 11 12  1  0  0  0  0
 11 27  2  0  0  0  0
 12 13  2  0  0  0  0
 13 14  1  0  0  0  0
 14 15  1  0  0  0  0
 14 26  2  0  0  0  0
 15 16  2  0  0  0  0
 16 17  1  0  0  0  0
 17 18  2  0  0  0  0
 17 19  1  0  0  0  0
 19 20  1  0  0  0  0
 20 21  1  0  0  0  0
 20 25  1  0  0  0  0
 21 22  1  0  0  0  0
 22 23  1  0  0  0  0
 23 24  1  0  0  0  0
 24 25  1  0  0  0  0
 26 27  1  0  0  0  0
 28 29  1  0  0  0  0
M  END
> <name>
decoy1

> <label>
0

$$$$
decoy2
  -OEChem-10082421392D

 13 13  0     0  0  0  0  0  0999 V2000
   -3.4630   -0.3200    0.0000 C   0  0  0  0  0  0  0  0  0  0  0  0
   -2.5950   -0.8170    0.0000 C   0  0  0  0  0  0  0  0  0  0  0  0
   -1.7310   -0.3140    0.0000 C   0  0  0  0  0  0  0  0  0  0  0  0
   -1.7340    0.6860    0.0000 O   0  0  0  0  0  0  0  0  0  0  0  0
   -0.8630   -0.8110    0.0000 N   0  0  0  0  0  0  0  0  0  0  0  0
    0.0010   -0.3080    0.0000 C   0  0  0  0  0  0  0  0  0  0  0  0
   -0.0020    0.6920    0.0000 C   0  0  0  0  0  0  0  0  0  0  0  0
    0.8620    1.1960    0.0000 C   0  0  0  0  0  0  0  0  0  0  0  0
    1.7300    0.6980    0.0000 C   0  0  0  0  0  0  0  0  0  0  0  0
    2.5940    1.2020    0.0000 Br  0  0  0  0  0  0  0  0  0  0  0  0
    1.7330   -0.3020    0.0000 C   0  0  0  0  0  0  0  0  0  0  0  0
    2.6010   -0.7980    0.0000 C   0  0  0  0  0  0  0  0  0  0  0  0
    0.8690   -0.8050    0.0000 C   0  0  0  0  0  0  0  0  0  0  0  0
  1  2  2  0  0  0  0
  2  3  1  0  0  0  0
  3  4  2  0  0  0  0
  3  5  1  0  0  0  0
  5  6  1  0  0  0  0
  6  7  1  0  0  0  0
  6 13  2  0  0  0  0
  7  8  2  0  0  0  0
  8  9  1  0  0  0  0
  9 10  1  0  0  0  0
  9 11  2  0  0  0  0
 11 12  1  0  0  0  0
 11 13  1  0  0  0  0
M  END
> <name>
decoy2

> <label>
0

$$$$
decoy3
  -OEChem-10082421392D

 13 13  0     0  0  0  0  0  0999 V2000
   -3.4630   -0.3200    0.0000 C   0  0  0  0  0  0  0  0  0  0  0  0
   -2.5950   -0.8170    0.0000 C   0  0  0  0  0  0  0  0  0  0  0  0
   -1.7310   -0.3140    0.0000 C   0  0  0  0  0  0  0  0  0  0  0  0
   -1.7340    0.6860    0.0000 O   0  0  0  0  0  0  0  0  0  0  0  0
   -0.8630   -0.8110    0.0000 N   0  0  0  0  0  0  0  0  0  0  0  0
    0.0010   -0.3080    0.0000 C   0  0  0  0  0  0  0  0  0  0  0  0
   -0.0020    0.6920    0.0000 C   0  0  0  0  0  0  0  0  0  0  0  0
    0.8620    1.1960    0.0000 C   0  0  0  0  0  0  0  0  0  0  0  0
    1.7300    0.6980    0.0000 C   0  0  0  0  0  0  0  0  0  0  0  0
    2.5940    1.2020    0.0000 F   0  0  0  0  0  0  0  0  0  0  0  0
    1.7330   -0.3020    0.0000 C   0  0  0  0  0  0  0  0  0  0  0  0
    2.6010   -0.7980    0.0000 F   0  0  0  0  0  0  0  0  0  0  0  0
    0.8690   -0.8050    0.0000 C   0  0  0  0  0  0  0  0  0  0  0  0
  1  2  2  0  0  0  0
  2  3  1  0  0  0  0
  3  4  2  0  0  0  0
  3  5  1  0  0  0  0
  5  6  1  0  0  0  0
  6  7  1  0  0  0  0
  6 13  2  0  0  0  0
  7  8  2  0  0  0  0
  8  9  1  0  0  0  0
  9 10  1  0  0  0  0
  9 11  2  0  0  0  0
 11 12  1  0  0  0  0
 11 13  1  0  0  0  0
M  END
> <name>
decoy3

> <label>
0

$$$$
decoy4
  -OEChem-10082421392D

 20 22  0     0  0  0  0  0  0999 V2000
   -4.4600    0.3340    0.0000 C   0  0  0  0  0  0  0  0  0  0  0  0
   -3.5940   -0.1650    0.0000 C   0  0  0  0  0  0  0  0  0  0  0  0
   -2.7280    0.3360    0.0000 C   0  0  0  0  0  0  0  0  0  0  0  0
   -2.7290    1.3360    0.0000 O   0  0  0  0  0  0  0  0  0  0  0  0
   -1.8620   -0.1640    0.0000 N   0  0  0  0  0  0  0  0  0  0  0  0
   -0.9960    0.3370    0.0000 C   0  0  0  0  0  0  0  0  0  0  0  0
   -0.9970    1.3370    0.0000 C   0  0  0  0  0  0  0  0  0  0  0  0
   -0.1310    1.8380    0.0000 C   0  0  0  0  0  0  0  0  0  0  0  0
    0.7350    1.3380    0.0000 C   0  0  0  0  0  0  0  0  0  0  0  0
    1.6010    1.8390    0.0000 N   0  0  0  0  0  0  0  0  0  0  0  0
    2.4670    1.3400    0.0000 C   0  0  0  0  0  0  0  0  0  0  0  0
    2.4680    0.3400    0.0000 N   0  0  0  0  0  0  0  0  0  0  0  0
    1.6020   -0.1610    0.0000 C   0  0  0  0  0  0  0  0  0  0  0  0
    1.6030   -1.1610    0.0000 N   0  0  0  0  0  0  0  0  0  0  0  0
    0.7940   -1.7490    0.0000 C   0  0  0  0  0  0  0  0  0  0  0  0
    1.1040   -2.7000    0.0000 C   0  0  0  0  0  0  0  0  0  0  0  0
    2.1040   -2.7000    0.0000 C   0  0  0  0  0  0  0  0  0  0  0  0
    2.4130   -1.7480    0.0000 C   0  0  0  0  0  0  0  0  0  0  0  0
    0.7360    0.3380    0.0000 C   0  0  0  0  0  0  0  0  0  0  0  0
   -0.1300   -0.1620    0.0000 C   0  0  0  0  0  0  0  0  0  0  0  0
  1  2  2  0  0  0  0
  2  3  1  0  0  0  0
  3  4  2  0  0  0  0
  3  5  1  0  0  0  0
  5  6  1  0  0  0  0
  6  7  1  0  0  0  0
  6 20  2  0  0  0  0
  7  8  2  0  0  0  0
  8  9  1  0  0  0  0
  9 10  1  0  0  0  0
  9 19  2  0  0  0  0
 10 11  2  0  0  0  0
 11 12  1  0  0  0  0
 12 13  2  0  0  0  0
 13 14  1  0  0  0  0
 13 19  1  0  0  0  0
 14 15  1  0  0  0  0
 14 18  1  0  0  0  0
 15 16  1  0  0  0  0
 16 17  1  0  0  0  0
 17 18  1  0  0  0  0
 19 20  1  0  0  0  0
M  END
> <name>
decoy4

> <label>
0

$$$$
decoy5
  -OEChem-10082421392D

 21 23  0     0  0  0  0  0  0999 V2000
   -4.5370    0.4730    0.0000 C   0  0  0  0  0  0  0  0  0  0  0  0
   -3.6700   -0.0270    0.0000 C   0  0  0  0  0  0  0  0  0  0  0  0
   -2.8050    0.4740    0.0000 C   0  0  0  0  0  0  0  0  0  0  0  0
   -2.8050    1.4740    0.0000 O   0  0  0  0  0  0  0  0  0  0  0  0
   -1.9380   -0.0250    0.0000 N   0  0  0  0  0  0  0  0  0  0  0  0
   -1.0730    0.4750    0.0000 C   0  0  0  0  0  0  0  0  0  0  0  0
   -1.0730    1.4750    0.0000 C   0  0  0  0  0  0  0  0  0  0  0  0
   -0.2080    1.9760    0.0000 C   0  0  0  0  0  0  0  0  0  0  0  0
    0.6590    1.4770    0.0000 C   0  0  0  0  0  0  0  0  0  0  0  0
    1.5240    1.9770    0.0000 N   0  0  0  0  0  0  0  0  0  0  0  0
    2.3910    1.4780    0.0000 C   0  0  0  0  0  0  0  0  0  0  0  0
    2.3910    0.4780    0.0000 N   0  0  0  0  0  0  0  0  0  0  0  0
    1.5260   -0.0230    0.0000 C   0  0  0  0  0  0  0  0  0  0  0  0
    1.5270   -1.0230    0.0000 N   0  0  0  0  0  0  0  0  0  0  0  0
    0.6610   -1.5230    0.0000 C   0  0  0  0  0  0  0  0  0  0  0  0
    0.6620   -2.5230    0.0000 C   0  0  0  0  0  0  0  0  0  0  0  0
    1.5280   -3.0230    0.0000 C   0  0  0  0  0  0  0  0  0  0  0  0
    2.3940   -2.5220    0.0000 C   0  0  0  0  0  0  0  0  0  0  0  0
    2.3930   -1.5220    0.0000 C   0  0  0  0  0  0  0  0  0  0  0  0
    0.6590    0.4770    0.0000 C   0  0  0  0  0  0  0  0  0  0  0  0
   -0.2060   -0.0240    0.0000 C   0  0  0  0  0  0  0  0  0  0  0  0
  1  2  2  0  0  0  0
  2  3  1  0  0  0  0
  3  4  2  0  0  0  0
  3  5  1  0  0  0  0
  5  6  1  0  0  0  0
  6  7  1  0  0  0  0
  6 21  2  0  0  0  0
  7  8  2  0  0  0  0
  8  9  1  0  0  0  0
  9 10  1  0  0  0  0
  9 20  2  0  0  0  0
 10 11  2  0  0  0  0
 11 12  1  0  0  0  0
 12 13  2  0  0  0  0
 13 14  1  0  0  0  0
 13 20  1  0  0  0  0
 14 15  1  0  0  0  0
 14 19  1  0  0  0  0
 15 16  1  0  0  0  0
 16 17  1  0  0  0  0
 17 18  1  0  0  0  0
 18 19  1  0  0  0  0
 20 21  1  0  0  0  0
M  END
> <name>
decoy5

> <label>
0

$$$$
decoy6
  -OEChem-10082421392D

 13 13  0     0  0  0  0  0  0999 V2000
   -3.4630   -0.3200    0.0000 C   0  0  0  0  0  0  0  0  0  0  0  0
   -2.5950   -0.8170    0.0000 C   0  0  0  0  0  0  0  0  0  0  0  0
   -1.7310   -0.3140    0.0000 C   0  0  0  0  0  0  0  0  0  0  0  0
   -1.7340    0.6860    0.0000 O   0  0  0  0  0  0  0  0  0  0  0  0
   -0.8630   -0.8110    0.0000 N   0  0  0  0  0  0  0  0  0  0  0  0
    0.0010   -0.3080    0.0000 C   0  0  0  0  0  0  0  0  0  0  0  0
   -0.0020    0.6920    0.0000 C   0  0  0  0  0  0  0  0  0  0  0  0
    0.8620    1.1960    0.0000 C   0  0  0  0  0  0  0  0  0  0  0  0
    1.7300    0.6980    0.0000 C   0  0  0  0  0  0  0  0  0  0  0  0
    2.5940    1.2020    0.0000 C   0  0  0  0  0  0  0  0  0  0  0  0
    1.7330   -0.3020    0.0000 C   0  0  0  0  0  0  0  0  0  0  0  0
    2.6010   -0.7980    0.0000 Cl  0  0  0  0  0  0  0  0  0  0  0  0
    0.8690   -0.8050    0.0000 C   0  0  0  0  0  0  0  0  0  0  0  0
  1  2  2  0  0  0  0
  2  3  1  0  0  0  0
  3  4  2  0  0  0  0
  3  5  1  0  0  0  0
  5  6  1  0  0  0  0
  6  7  1  0  0  0  0
  6 13  2  0  0  0  0
  7  8  2  0  0  0  0
  8  9  1  0  0  0  0
  9 10  1  0  0  0  0
  9 11  2  0  0  0  0
 11 12  1  0  0  0  0
 11 13  1  0  0  0  0
M  END
> <name>
decoy6

> <label>
0

$$$$
decoy7
  -OEChem-10082421392D

 19 19  0     0  0  0  0  0  0999 V2000
   -5.6510   -1.1100    0.0000 C   0  0  0  0  0  0  0  0  0  0  0  0
   -4.7850   -0.6090    0.0000 C   0  0  0  0  0  0  0  0  0  0  0  0
   -3.9190   -1.1080    0.0000 C   0  0  0  0  0  0  0  0  0  0  0  0
   -3.0530   -0.6080    0.0000 C   0  0  0  0  0  0  0  0  0  0  0  0
   -2.1870   -1.1070    0.0000 C   0  0  0  0  0  0  0  0  0  0  0  0
   -1.3210   -0.6060    0.0000 C   0  0  0  0  0  0  0  0  0  0  0  0
   -1.3220    0.3940    0.0000 O   0  0  0  0  0  0  0  0  0  0  0  0
   -0.4550   -1.1060    0.0000 N   0  0  0  0  0  0  0  0  0  0  0  0
    0.4100   -0.6050    0.0000 C   0  0  0  0  0  0  0  0  0  0  0  0
    0.4100    0.3950    0.0000 C   0  0  0  0  0  0  0  0  0  0  0  0
    1.2760    0.8960    0.0000 C   0  0  0  0  0  0  0  0  0  0  0  0
    2.1420    0.3960    0.0000 C   0  0  0  0  0  0  0  0  0  0  0  0
    3.0080    0.8970    0.0000 N   0  0  0  0  0  0  0  0  0  0  0  0
    3.0070    1.8970    0.0000 C   0  0  0  0  0  0  0  0  0  0  0  0
    3.8720    2.3980    0.0000 C   0  0  0  0  0  0  0  0  0  0  0  0
    2.1400    2.3960    0.0000 O   0  0  0  0  0  0  0  0  0  0  0  0
    2.1430   -0.6040    0.0000 C   0  0  0  0  0  0  0  0  0  0  0  0
    3.0090   -1.1030    0.0000 C   0  0  0  0  0  0  0  0  0  0  0  0
    1.2770   -1.1040    0.0000 C   0  0  0  0  0  0  0  0  0  0  0  0
  1  2  1  0  0  0  0
  2  3  2  0  0  0  0
  3  4  1  0  0  0  0
  4  5  2  0  0  0  0
  5  6  1  0  0  0  0
  6  7  2  0  0  0  0
  6  8  1  0  0  0  0
  8  9  1  0  0  0  0
  9 10  1  0  0  0  0
  9 19  2  0  0  0  0
 10 11  2  0  0  0  0
 11 12  1  0  0  0  0
 12 13  1  0  0  0  0
 12 17  2  0  0  0  0
 13 14  1  0  0  0  0
 14 15  1  0  0  0  0
 14 16  2  0  0  0  0
 17 18  1  0  0  0  0
 17 19  1  0  0  0  0
M  END
> <name>
decoy7

> <label>
0

$$$$
decoy8
  -OEChem-10082421392D

 22 23  0     0  0  0  0  0  0999 V2000
   -6.3370   -1.2100    0.0000 C   0  0  0  0  0  0  0  0  0  0  0  0
   -5.4710   -0.7090    0.0000 C   0  0  0  0  0  0  0  0  0  0  0  0
   -4.6050   -1.2080    0.0000 C   0  0  0  0  0  0  0  0  0  0  0  0
   -3.7390   -0.7080    0.0000 C   0  0  0  0  0  0  0  0  0  0  0  0
   -2.8730   -1.2070    0.0000 C   0  0  0  0  0  0  0  0  0  0  0  0
   -2.0070   -0.7060    0.0000 C   0  0  0  0  0  0  0  0  0  0  0  0
   -2.0080    0.2940    0.0000 O   0  0  0  0  0  0  0  0  0  0  0  0
   -1.1410   -1.2060    0.0000 N   0  0  0  0  0  0  0  0  0  0  0  0
   -0.2750   -0.7050    0.0000 C   0  0  0  0  0  0  0  0  0  0  0  0
   -0.2760    0.2950    0.0000 C   0  0  0  0  0  0  0  0  0  0  0  0
    0.5900    0.7960    0.0000 C   0  0  0  0  0  0  0  0  0  0  0  0
    1.4560    0.2970    0.0000 C   0  0  0  0  0  0  0  0  0  0  0  0
    2.3220    0.7970    0.0000 N   0  0  0  0  0  0  0  0  0  0  0  0
    2.3210    1.7970    0.0000 C   0  0  0  0  0  0  0  0  0  0  0  0
    3.1870    2.2980    0.0000 C   0  0  0  0  0  0  0  0  0  0  0  0
    4.0530    1.7990    0.0000 N   0  3  0  0  0  0  0  0  0  0  0  0
    4.9190    2.2990    0.0000 C   0  0  0  0  0  0  0  0  0  0  0  0
    4.0540    0.7980    0.0000 C   0  0  0  0  0  0  0  0  0  0  0  0
    3.1880    0.2980    0.0000 C   0  0  0  0  0  0  0  0  0  0  0  0
    1.4570   -0.7040    0.0000 C   0  0  0  0  0  0  0  0  0  0  0  0
    0.5910   -1.2040    0.0000 C   0  0  0  0  0  0  0  0  0  0  0  0
    0.5920   -2.2040    0.0000 C   0  0  0  0  0  0  0  0  0  0  0  0
  1  2  1  0  0  0  0
  2  3  2  0  0  0  0
  3  4  1  0  0  0  0
  4  5  2  0  0  0  0
  5  6  1  0  0  0  0
  6  7  2  0  0  0  0
  6  8  1  0  0  0  0
  8  9  1  0  0  0  0
  9 10  1  0  0  0  0
  9 21  2  0  0  0  0
 10 11  2  0  0  0  0
 11 12  1  0  0  0  0
 12 13  1  0  0  0  0
 12 20  2  0  0  0  0
 13 14  1  0  0  0  0
 13 19  1  0  0  0  0
 14 15  1  0  0  0  0
 15 16  1  0  0  0  0
 16 17  1  0  0  0  0
 16 18  1  0  0  0  0
 18 19  1  0  0  0  0
 20 21  1  0  0  0  0
 21 22  1  0  0  0  0
M  CHG  1  16   1
M  END
> <name>
decoy8

> <label>
0

$$$$
decoy9
  -OEChem-10082421392D

 19 19  0     0  0  0  0  0  0999 V2000
   -5.6510   -1.1100    0.0000 C   0  0  0  0  0  0  0  0  0  0  0  0
   -4.7850   -0.6090    0.0000 C   0  0  0  0  0  0  0  0  0  0  0  0
   -3.9190   -1.1080    0.0000 C   0  0  0  0  0  0  0  0  0  0  0  0
   -3.0530   -0.6080    0.0000 C   0  0  0  0  0  0  0  0  0  0  0  0
   -2.1870   -1.1070    0.0000 C   0  0  0  0  0  0  0  0  0  0  0  0
   -1.3210   -0.6060    0.0000 C   0  0  0  0  0  0  0  0  0  0  0  0
   -1.3220    0.3940    0.0000 O   0  0  0  0  0  0  0  0  0  0  0  0
   -0.4550   -1.1060    0.0000 N   0  0  0  0  0  0  0  0  0  0  0  0
    0.4100   -0.6050    0.0000 C   0  0  0  0  0  0  0  0  0  0  0  0
    0.4100    0.3950    0.0000 C   0  0  0  0  0  0  0  0  0  0  0  0
    1.2760    0.8960    0.0000 C   0  0  0  0  0  0  0  0  0  0  0  0
    2.1420    0.3960    0.0000 C   0  0  0  0  0  0  0  0  0  0  0  0
    3.0080    0.8970    0.0000 N   0  0  0  0  0  0  0  0  0  0  0  0
    3.0070    1.8970    0.0000 C   0  0  0  0  0  0  0  0  0  0  0  0
    3.8720    2.3980    0.0000 C   0  0  0  0  0  0  0  0  0  0  0  0
    2.1400    2.3960    0.0000 O   0  0  0  0  0  0  0  0  0  0  0  0
    2.1430   -0.6040    0.0000 C   0  0  0  0  0  0  0  0  0  0  0  0
    3.0090   -1.1030    0.0000 Cl  0  0  0  0  0  0  0  0  0  0  0  0
    1.2770   -1.1040    0.0000 C   0  0  0  0  0  0  0  0  0  0  0  0
  1  2  1  0  0  0  0
  2  3  2  0  0  0  0
  3  4  1  0  0  0  0
  4  5  2  0  0  0  0
  5  6  1  0  0  0  0
  6  7  2  0  0  0  0
  6  8  1  0  0  0  0
  8  9  1  0  0  0  0
  9 10  2  0  0  0  0
  9 19  1  0  0  0  0
 10 11  1  0  0  0  0
 11 12  2  0  0  0  0
 12 13  1  0  0  0  0
 12 17  1  0  0  0  0
 13 14  1  0  0  0  0
 14 15  1  0  0  0  0
 14 16  2  0  0  0  0
 17 18  1  0  0  0  0
 17 19  2  0  0  0  0
M  END
> <name>
decoy9

> <label>
0

$$$$
decoy10
  -OEChem-10082421392D

 24 24  0     0  0  0  0  0  0999 V2000
   -7.0720   -1.0890    0.0000 C   0  0  0  0  0  0  0  0  0  0  0  0
   -6.2060   -0.5880    0.0000 C   0  0  0  0  0  0  0  0  0  0  0  0
   -5.3400   -1.0880    0.0000 C   0  0  0  0  0  0  0  0  0  0  0  0
   -4.4740   -0.5870    0.0000 C   0  0  0  0  0  0  0  0  0  0  0  0
   -3.6080   -1.0860    0.0000 C   0  0  0  0  0  0  0  0  0  0  0  0
   -2.7420   -0.5860    0.0000 C   0  0  0  0  0  0  0  0  0  0  0  0
   -2.7430    0.4140    0.0000 O   0  0  0  0  0  0  0  0  0  0  0  0
   -1.8760   -1.0850    0.0000 N   0  0  0  0  0  0  0  0  0  0  0  0
   -1.0100   -0.5840    0.0000 C   0  0  0  0  0  0  0  0  0  0  0  0
   -0.1440   -1.0830    0.0000 C   0  0  0  0  0  0  0  0  0  0  0  0
    0.7220   -0.5830    0.0000 C   0  0  0  0  0  0  0  0  0  0  0  0
    0.7210    0.4170    0.0000 C   0  0  0  0  0  0  0  0  0  0  0  0
    1.5870    0.9180    0.0000 O   0  0  0  0  0  0  0  0  0  0  0  0
    2.4530    0.4190    0.0000 C   0  0  0  0  0  0  0  0  0  0  0  0
    3.3190    0.9190    0.0000 C   0  0  0  0  0  0  0  0  0  0  0  0
    3.3180    1.9190    0.0000 O   0  0  0  0  0  0  0  0  0  0  0  0
    4.1850    0.4200    0.0000 N   0  0  0  0  0  0  0  0  0  0  0  0
    4.1860   -0.5800    0.0000 C   0  0  0  0  0  0  0  0  0  0  0  0
    5.0520   -1.0790    0.0000 C   0  0  0  0  0  0  0  0  0  0  0  0
    5.0510    0.9210    0.0000 C   0  0  0  0  0  0  0  0  0  0  0  0
    5.9170    0.4220    0.0000 C   0  0  0  0  0  0  0  0  0  0  0  0
   -0.1450    0.9160    0.0000 C   0  0  0  0  0  0  0  0  0  0  0  0
   -0.1460    1.9160    0.0000 Cl  0  0  0  0  0  0  0  0  0  0  0  0
   -1.0110    0.4160    0.0000 C   0  0  0  0  0  0  0  0  0  0  0  0
  1  2  1  0  0  0  0
  2  3  2  0  0  0  0
  3  4  1  0  0  0  0
  4  5  2  0  0  0  0
  5  6  1  0  0  0  0
  6  7  2  0  0  0  0
  6  8  1  0  0  0  0
  8  9  1  0  0  0  0
  9 10  2  0  0  0  0
  9 24  1  0  0  0  0
 10 11  1  0  0  0  0
 11 12  2  0  0  0  0
 12 13  1  0  0  0  0
 12 22  1  0  0  0  0
 13 14  1  0  0  0  0
 14 15  1  0  0  0  0
 15 16  2  0  0  0  0
 15 17  1  0  0  0  0
 17 18  1  0  0  0  0
 17 20  1  0  0  0  0
 18 19  1  0  0  0  0
 20 21  1  0  0  0  0
 22 23  1  0  0  0  0
 22 24  2  0  0  0  0
M  END
> <name>
decoy10

> <label>
0

$$$$
decoy11
  -OEChem-10082421392D

 23 24  0     0  0  0  0  0  0999 V2000
   -6.6250   -1.6570    0.0000 C   0  0  0  0  0  0  0  0  0  0  0  0
   -5.7600   -1.1570    0.0000 C   0  0  0  0  0  0  0  0  0  0  0  0
   -4.8930   -1.6560    0.0000 C   0  0  0  0  0  0  0  0  0  0  0  0
   -4.0280   -1.1550    0.0000 C   0  0  0  0  0  0  0  0  0  0  0  0
   -3.1610   -1.6550    0.0000 C   0  0  0  0  0  0  0  0  0  0  0  0
   -2.2960   -1.1540    0.0000 C   0  0  0  0  0  0  0  0  0  0  0  0
   -2.2970   -0.1540    0.0000 O   0  0  0  0  0  0  0  0  0  0  0  0
   -1.4290   -1.6530    0.0000 N   0  0  0  0  0  0  0  0  0  0  0  0
   -0.5640   -1.1530    0.0000 C   0  0  0  0  0  0  0  0  0  0  0  0
   -0.5650   -0.1530    0.0000 C   0  0  0  0  0  0  0  0  0  0  0  0
    0.3010    0.3480    0.0000 C   0  0  0  0  0  0  0  0  0  0  0  0
    1.1670   -0.1510    0.0000 C   0  0  0  0  0  0  0  0  0  0  0  0
    2.0330    0.3490    0.0000 O   0  0  0  0  0  0  0  0  0  0  0  0
    2.0320    1.3490    0.0000 C   0  0  0  0  0  0  0  0  0  0  0  0
    2.8980    1.8500    0.0000 C   0  0  0  0  0  0  0  0  0  0  0  0
    2.8970    2.8500    0.0000 C   0  0  0  0  0  0  0  0  0  0  0  0
    3.7630    3.3510    0.0000 C   0  0  0  0  0  0  0  0  0  0  0  0
    4.6290    2.8520    0.0000 C   0  0  0  0  0  0  0  0  0  0  0  0
    4.6300    1.8510    0.0000 N   0  0  0  0  0  0  0  0  0  0  0  0
    3.7640    1.3510    0.0000 C   0  0  0  0  0  0  0  0  0  0  0  0
    1.1680   -1.1510    0.0000 C   0  0  0  0  0  0  0  0  0  0  0  0
    2.0350   -1.6510    0.0000 Cl  0  0  0  0  0  0  0  0  0  0  0  0
    0.3030   -1.6520    0.0000 C   0  0  0  0  0  0  0  0  0  0  0  0
  1  2  1  0  0  0  0
  2  3  2  0  0  0  0
  3  4  1  0  0  0  0
  4  5  2  0  0  0  0
  5  6  1  0  0  0  0
  6  7  2  0  0  0  0
  6  8  1  0  0  0  0
  8  9  1  0  0  0  0
  9 10  2  0  0  0  0
  9 23  1  0  0  0  0
 10 11  1  0  0  0  0
 11 12  2  0  0  0  0
 12 13  1  0  0  0  0
 12 21  1  0  0  0  0
 13 14  1  0  0  0  0
 14 15  1  0  0  0  0
 15 16  1  0  0  0  0
 15 20  2  0  0  0  0
 16 17  2  0  0  0  0
 17 18  1  0  0  0  0
 18 19  2  0  0  0  0
 19 20  1  0  0  0  0
 21 22  1  0  0  0  0
 21 23  2  0  0  0  0
M  END
> <name>
decoy11

> <label>
0

$$$$
decoy12
  -OEChem-10082421392D

 34 37  0     1  0  0  0  0  0999 V2000
   -6.6480   -0.4690    0.0000 C   0  0  0  0  0  0  0  0  0  0  0  0
   -5.7820    0.0320    0.0000 N   0  3  0  0  0  0  0  0  0  0  0  0
   -5.7830    1.0320    0.0000 C   0  0  0  0  0  0  0  0  0  0  0  0
   -4.9160   -0.4670    0.0000 C   0  0  0  0  0  0  0  0  0  0  0  0
   -4.0500    0.0330    0.0000 C   0  0  0  0  0  0  0  0  0  0  0  0
   -3.1840   -0.4660    0.0000 C   0  0  0  0  0  0  0  0  0  0  0  0
   -2.3180    0.0350    0.0000 C   0  0  0  0  0  0  0  0  0  0  0  0
   -2.3190    1.0350    0.0000 O   0  0  0  0  0  0  0  0  0  0  0  0
   -1.4520   -0.4640    0.0000 N   0  0  0  0  0  0  0  0  0  0  0  0
   -0.5860    0.0360    0.0000 C   0  0  0  0  0  0  0  0  0  0  0  0
    0.2800   -0.4630    0.0000 C   0  0  0  0  0  0  0  0  0  0  0  0
    1.1460    0.0380    0.0000 C   0  0  0  0  0  0  0  0  0  0  0  0
    2.0130   -0.4620    0.0000 C   0  0  0  0  0  0  0  0  0  0  0  0
    2.0130   -1.4620    0.0000 N   0  0  0  0  0  0  0  0  0  0  0  0
    2.8800   -1.9610    0.0000 C   0  0  0  0  0  0  0  0  0  0  0  0
    3.7450   -1.4600    0.0000 C   0  0  0  0  0  0  0  0  0  0  0  0
    4.6120   -1.9600    0.0000 C   0  0  0  0  0  0  0  0  0  0  0  0
    4.6120   -2.9600    0.0000 C   0  0  0  0  0  0  0  0  0  0  0  0
    5.4790   -3.4590    0.0000 F   0  0  0  0  0  0  0  0  0  0  0  0
    3.7470   -3.4600    0.0000 C   0  0  0  0  0  0  0  0  0  0  0  0
    3.7480   -4.4600    0.0000 Cl  0  0  0  0  0  0  0  0  0  0  0  0
    2.8800   -2.9610    0.0000 C   0  0  0  0  0  0  0  0  0  0  0  0
    2.8780    0.0390    0.0000 N   0  0  0  0  0  0  0  0  0  0  0  0
    2.8770    1.0390    0.0000 C   0  0  0  0  0  0  0  0  0  0  0  0
    2.0110    1.5380    0.0000 N   0  0  0  0  0  0  0  0  0  0  0  0
    1.1450    1.0380    0.0000 C   0  0  0  0  0  0  0  0  0  0  0  0
    0.2790    1.5370    0.0000 C   0  0  0  0  0  0  0  0  0  0  0  0
   -0.5870    1.0360    0.0000 C   0  0  0  0  0  0  0  0  0  0  0  0
   -1.4530    1.5360    0.0000 O   0  0  0  0  0  0  0  0  0  0  0  0
   -1.4540    2.5360    0.0000 C   0  0  1  0  0  0  0  0  0  0  0  0
   -0.6450    3.1240    0.0000 C   0  0  0  0  0  0  0  0  0  0  0  0
   -0.9550    4.0750    0.0000 C   0  0  0  0  0  0  0  0  0  0  0  0
   -1.9550    4.0740    0.0000 O   0  0  0  0  0  0  0  0  0  0  0  0
   -2.2640    3.1230    0.0000 C   0  0  0  0  0  0  0  0  0  0  0  0
  1  2  1  0  0  0  0
  2  3  1  0  0  0  0
  2  4  1  0  0  0  0
  4  5  1  0  0  0  0
  5  6  2  0  0  0  0
  6  7  1  0  0  0  0
  7  8  2  0  0  0  0
  7  9  1  0  0  0  0
  9 10  1  0  0  0  0
 10 11  1  0  0  0  0
 10 28  2  0  0  0  0
 11 12  2  0  0  0  0
 12 13  1  0  0  0  0
 12 26  1  0  0  0  0
 13 14  1  0  0  0  0
 13 23  2  0  0  0  0
 14 15  1  0  0  0  0
 15 16  2  0  0  0  0
 15 22  1  0  0  0  0
 16 17  1  0  0  0  0
 17 18  2  0  0  0  0
 18 19  1  0  0  0  0
 18 20  1  0  0  0  0
 20 21  1  0  0  0  0
 20 22  2  0  0  0  0
 23 24  1  0  0  0  0
 24 25  2  0  0  0  0
 25 26  1  0  0  0  0
 26 27  2  0  0  0  0
 27 28  1  0  0  0  0
 28 29  1  0  0  0  0
 30 29  1  6  0  0  0
 30 31  1  0  0  0  0
 30 34  1  0  0  0  0
 31 32  1  0  0  0  0
 32 33  1  0  0  0  0
 33 34  1  0  0  0  0
M  CHG  1   2   1
M  END
> <name>
decoy12

> <label>
0

$$$$
decoy13
  -OEChem-10082421392D

 32 34  0     0  0  0  0  0  0999 V2000
   -2.5540   -5.2140    0.0000 C   0  0  0  0  0  0  0  0  0  0  0  0
   -2.5520   -4.2140    0.0000 O   0  0  0  0  0  0  0  0  0  0  0  0
   -1.6850   -3.7150    0.0000 C   0  0  0  0  0  0  0  0  0  0  0  0
   -1.6840   -2.7150    0.0000 C   0  0  0  0  0  0  0  0  0  0  0  0
   -0.8160   -2.2170    0.0000 C   0  0  0  0  0  0  0  0  0  0  0  0
   -0.8140   -1.2170    0.0000 C   0  0  0  0  0  0  0  0  0  0  0  0
    0.0530   -0.7190    0.0000 C   0  0  0  0  0  0  0  0  0  0  0  0
    0.0550    0.2810    0.0000 C   0  0  0  0  0  0  0  0  0  0  0  0
   -0.8100    0.7830    0.0000 O   0  0  0  0  0  0  0  0  0  0  0  0
    0.9220    0.7790    0.0000 N   0  0  0  0  0  0  0  0  0  0  0  0
    0.9240    1.7790    0.0000 C   0  0  0  0  0  0  0  0  0  0  0  0
    1.7910    2.2780    0.0000 C   0  0  0  0  0  0  0  0  0  0  0  0
    1.7930    3.2780    0.0000 C   0  0  0  0  0  0  0  0  0  0  0  0
    0.9280    3.7790    0.0000 C   0  0  0  0  0  0  0  0  0  0  0  0
    0.9300    4.7790    0.0000 N   0  0  0  0  0  0  0  0  0  0  0  0
    1.7970    5.2780    0.0000 C   0  0  0  0  0  0  0  0  0  0  0  0
    1.7990    6.2780    0.0000 C   0  0  0  0  0  0  0  0  0  0  0  0
    0.9340    6.7790    0.0000 N   0  3  0  0  0  0  0  0  0  0  0  0
    0.9360    7.7790    0.0000 C   0  0  0  0  0  0  0  0  0  0  0  0
    0.0670    6.2810    0.0000 C   0  0  0  0  0  0  0  0  0  0  0  0
    0.0650    5.2810    0.0000 C   0  0  0  0  0  0  0  0  0  0  0  0
    0.0610    3.2810    0.0000 C   0  0  0  0  0  0  0  0  0  0  0  0
    0.0590    2.2810    0.0000 C   0  0  0  0  0  0  0  0  0  0  0  0
   -0.8080    1.7830    0.0000 C   0  0  0  0  0  0  0  0  0  0  0  0
    0.0480   -2.7190    0.0000 C   0  0  0  0  0  0  0  0  0  0  0  0
    0.0470   -3.7190    0.0000 C   0  0  0  0  0  0  0  0  0  0  0  0
   -0.8200   -4.2170    0.0000 C   0  0  0  0  0  0  0  0  0  0  0  0
   -0.8220   -5.2170    0.0000 O   0  0  0  0  0  0  0  0  0  0  0  0
    0.0420   -5.7190    0.0000 C   0  0  0  0  0  0  0  0  0  0  0  0
    0.0400   -6.7190    0.0000 C   0  0  0  0  0  0  0  0  0  0  0  0
    0.9060   -7.2200    0.0000 C   0  0  0  0  0  0  0  0  0  0  0  0
   -0.8260   -7.2170    0.0000 C   0  0  0  0  0  0  0  0  0  0  0  0
  1  2  1  0  0  0  0
  2  3  1  0  0  0  0
  3  4  2  0  0  0  0
  3 27  1  0  0  0  0
  4  5  1  0  0  0  0
  5  6  1  0  0  0  0
  5 25  2  0  0  0  0
  6  7  2  0  0  0  0
  7  8  1  0  0  0  0
  8  9  2  0  0  0  0
  8 10  1  0  0  0  0
 10 11  1  0  0  0  0
 11 12  1  0  0  0  0
 11 23  2  0  0  0  0
 12 13  2  0  0  0  0
 13 14  1  0  0  0  0
 14 15  1  0  0  0  0
 14 22  2  0  0  0  0
 15 16  1  0  0  0  0
 15 21  1  0  0  0  0
 16 17  1  0  0  0  0
 17 18  1  0  0  0  0
 18 19  1  0  0  0  0
 18 20  1  0  0  0  0
 20 21  1  0  0  0  0
 22 23  1  0  0  0  0
 23 24  1  0  0  0  0
 25 26  1  0  0  0  0
 26 27  2  0  0  0  0
 27 28  1  0  0  0  0
 28 29  1  0  0  0  0
 29 30  1  0  0  0  0
 30 31  1  0  0  0  0
 30 32  1  0  0  0  0
M  CHG  1  18   1
M  END
> <name>
decoy13

> <label>
0

$$$$
decoy14
  -OEChem-10082421392D

 31 33  0     0  0  0  0  0  0999 V2000
   -6.9020    2.9460    0.0000 C   0  0  0  0  0  0  0  0  0  0  0  0
   -6.0370    3.4470    0.0000 C   0  0  0  0  0  0  0  0  0  0  0  0
   -5.1700    2.9480    0.0000 C   0  0  0  0  0  0  0  0  0  0  0  0
   -4.3050    3.4480    0.0000 O   0  0  0  0  0  0  0  0  0  0  0  0
   -3.4380    2.9490    0.0000 C   0  0  0  0  0  0  0  0  0  0  0  0
   -3.4380    1.9490    0.0000 C   0  0  0  0  0  0  0  0  0  0  0  0
   -2.5710    1.4500    0.0000 C   0  0  0  0  0  0  0  0  0  0  0  0
   -1.7060    1.9500    0.0000 C   0  0  0  0  0  0  0  0  0  0  0  0
   -0.8390    1.4510    0.0000 C   0  0  0  0  0  0  0  0  0  0  0  0
   -0.8380    0.4510    0.0000 C   0  0  0  0  0  0  0  0  0  0  0  0
    0.0280   -0.0480    0.0000 C   0  0  0  0  0  0  0  0  0  0  0  0
    0.8940    0.4520    0.0000 O   0  0  0  0  0  0  0  0  0  0  0  0
    0.0290   -1.0480    0.0000 N   0  0  0  0  0  0  0  0  0  0  0  0
    0.8950   -1.5480    0.0000 C   0  0  0  0  0  0  0  0  0  0  0  0
    0.8960   -2.5480    0.0000 C   0  0  0  0  0  0  0  0  0  0  0  0
    1.7620   -3.0470    0.0000 C   0  0  0  0  0  0  0  0  0  0  0  0
    2.6280   -2.5460    0.0000 C   0  0  0  0  0  0  0  0  0  0  0  0
    3.4940   -3.0460    0.0000 N   0  0  0  0  0  0  0  0  0  0  0  0
    3.4950   -4.0460    0.0000 C   0  0  0  0  0  0  0  0  0  0  0  0
    4.3620   -4.5450    0.0000 C   0  0  0  0  0  0  0  0  0  0  0  0
    5.2270   -4.0440    0.0000 N   0  3  0  0  0  0  0  0  0  0  0  0
    6.0940   -4.5440    0.0000 C   0  0  0  0  0  0  0  0  0  0  0  0
    5.2260   -3.0440    0.0000 C   0  0  0  0  0  0  0  0  0  0  0  0
    4.3600   -2.5450    0.0000 C   0  0  0  0  0  0  0  0  0  0  0  0
    2.6270   -1.5460    0.0000 C   0  0  0  0  0  0  0  0  0  0  0  0
    1.7610   -1.0470    0.0000 C   0  0  0  0  0  0  0  0  0  0  0  0
    1.7600   -0.0470    0.0000 C   0  0  0  0  0  0  0  0  0  0  0  0
   -1.7060    2.9500    0.0000 C   0  0  0  0  0  0  0  0  0  0  0  0
   -2.5730    3.4500    0.0000 C   0  0  0  0  0  0  0  0  0  0  0  0
   -2.5740    4.4500    0.0000 O   0  0  0  0  0  0  0  0  0  0  0  0
   -3.4400    4.9490    0.0000 C   0  0  0  0  0  0  0  0  0  0  0  0
  1  2  2  0  0  0  0
  2  3  1  0  0  0  0
  3  4  1  0  0  0  0
  4  5  1  0  0  0  0
  5  6  1  0  0  0  0
  5 29  2  0  0  0  0
  6  7  2  0  0  0  0
  7  8  1  0  0  0  0
  8  9  1  0  0  0  0
  8 28  2  0  0  0  0
  9 10  2  0  0  0  0
 10 11  1  0  0  0  0
 11 12  2  0  0  0  0
 11 13  1  0  0  0  0
 13 14  1  0  0  0  0
 14 15  1  0  0  0  0
 14 26  2  0  0  0  0
 15 16  2  0  0  0  0
 16 17  1  0  0  0  0
 17 18  1  0  0  0  0
 17 25  2  0  0  0  0
 18 19  1  0  0  0  0
 18 24  1  0  0  0  0
 19 20  1  0  0  0  0
 20 21  1  0  0  0  0
 21 22  1  0  0  0  0
 21 23  1  0  0  0  0
 23 24  1  0  0  0  0
 25 26  1  0  0  0  0
 26 27  1  0  0  0  0
 28 29  1  0  0  0  0
 29 30  1  0  0  0  0
 30 31  1  0  0  0  0
M  CHG  1  21   1
M  END
> <name>
decoy14

> <label>
0

$$$$
decoy15
  -OEChem-10082421392D

 24 25  0     0  0  0  0  0  0999 V2000
   -4.7260    1.0660    0.0000 C   0  0  0  0  0  0  0  0  0  0  0  0
   -3.8600    1.5660    0.0000 O   0  0  0  0  0  0  0  0  0  0  0  0
   -2.9940    1.0650    0.0000 C   0  0  0  0  0  0  0  0  0  0  0  0
   -2.9950    0.0650    0.0000 C   0  0  0  0  0  0  0  0  0  0  0  0
   -2.1290   -0.4360    0.0000 C   0  0  0  0  0  0  0  0  0  0  0  0
   -1.2630    0.0640    0.0000 C   0  0  0  0  0  0  0  0  0  0  0  0
   -0.3970   -0.4370    0.0000 O   0  0  0  0  0  0  0  0  0  0  0  0
   -0.3980   -1.4370    0.0000 C   0  0  0  0  0  0  0  0  0  0  0  0
    0.4680   -1.9380    0.0000 C   0  0  0  0  0  0  0  0  0  0  0  0
    0.4670   -2.9380    0.0000 C   0  0  0  0  0  0  0  0  0  0  0  0
    1.3320   -3.4380    0.0000 C   0  0  0  0  0  0  0  0  0  0  0  0
    2.1990   -2.9390    0.0000 C   0  0  0  0  0  0  0  0  0  0  0  0
    2.2000   -1.9390    0.0000 C   0  0  0  0  0  0  0  0  0  0  0  0
    1.3340   -1.4390    0.0000 N   0  0  0  0  0  0  0  0  0  0  0  0
   -1.2620    1.0640    0.0000 C   0  0  0  0  0  0  0  0  0  0  0  0
   -0.3960    1.5630    0.0000 C   0  0  0  0  0  0  0  0  0  0  0  0
    0.4700    1.0620    0.0000 C   0  0  0  0  0  0  0  0  0  0  0  0
    1.3360    1.5620    0.0000 C   0  0  0  0  0  0  0  0  0  0  0  0
    1.3370    2.5620    0.0000 O   0  0  0  0  0  0  0  0  0  0  0  0
    2.2020    1.0610    0.0000 N   0  0  0  0  0  0  0  0  0  0  0  0
    2.2010    0.0610    0.0000 C   0  0  0  0  0  0  0  0  0  0  0  0
    3.0680    1.5600    0.0000 O   0  0  0  0  0  0  0  0  0  0  0  0
    3.9340    1.0590    0.0000 C   0  0  0  0  0  0  0  0  0  0  0  0
   -2.1280    1.5640    0.0000 C   0  0  0  0  0  0  0  0  0  0  0  0
  1  2  1  0  0  0  0
  2  3  1  0  0  0  0
  3  4  1  0  0  0  0
  3 24  2  0  0  0  0
  4  5  2  0  0  0  0
  5  6  1  0  0  0  0
  6  7  1  0  0  0  0
  6 15  2  0  0  0  0
  7  8  1  0  0  0  0
  8  9  1  0  0  0  0
  9 10  1  0  0  0  0
  9 14  2  0  0  0  0
 10 11  2  0  0  0  0
 11 12  1  0  0  0  0
 12 13  2  0  0  0  0
 13 14  1  0  0  0  0
 15 16  1  0  0  0  0
 15 24  1  0  0  0  0
 16 17  2  0  0  0  0
 17 18  1  0  0  0  0
 18 19  2  0  0  0  0
 18 20  1  0  0  0  0
 20 21  1  0  0  0  0
 20 22  1  0  0  0  0
 22 23  1  0  0  0  0
M  END
> <name>
decoy15

> <label>
0

$$$$
decoy16
  -OEChem-10082421392D

 29 31  0     0  0  0  0  0  0999 V2000
   -6.5700   -0.6160    0.0000 C   0  0  0  0  0  0  0  0  0  0  0  0
   -5.7040   -0.1160    0.0000 O   0  0  0  0  0  0  0  0  0  0  0  0
   -4.8380   -0.6170    0.0000 C   0  0  0  0  0  0  0  0  0  0  0  0
   -3.9720   -0.1180    0.0000 C   0  0  0  0  0  0  0  0  0  0  0  0
   -3.1060   -0.6180    0.0000 C   0  0  0  0  0  0  0  0  0  0  0  0
   -2.2400   -0.1190    0.0000 C   0  0  0  0  0  0  0  0  0  0  0  0
   -1.3740   -0.6200    0.0000 C   0  0  0  0  0  0  0  0  0  0  0  0
   -0.5080   -0.1200    0.0000 C   0  0  0  0  0  0  0  0  0  0  0  0
   -0.5070    0.8800    0.0000 O   0  0  0  0  0  0  0  0  0  0  0  0
    0.3580   -0.6210    0.0000 N   0  0  0  0  0  0  0  0  0  0  0  0
    1.2240   -0.1220    0.0000 C   0  0  0  0  0  0  0  0  0  0  0  0
    1.2250    0.8780    0.0000 C   0  0  0  0  0  0  0  0  0  0  0  0
    2.0920    1.3780    0.0000 C   0  0  0  0  0  0  0  0  0  0  0  0
    2.9570    0.8770    0.0000 C   0  0  0  0  0  0  0  0  0  0  0  0
    3.8230    1.3760    0.0000 N   0  0  0  0  0  0  0  0  0  0  0  0
    3.8240    2.3760    0.0000 C   0  0  0  0  0  0  0  0  0  0  0  0
    4.6910    2.8760    0.0000 C   0  0  0  0  0  0  0  0  0  0  0  0
    5.5560    2.3750    0.0000 N   0  3  0  0  0  0  0  0  0  0  0  0
    6.4230    2.8740    0.0000 C   0  0  0  0  0  0  0  0  0  0  0  0
    5.5560    1.3750    0.0000 C   0  0  0  0  0  0  0  0  0  0  0  0
    4.6890    0.8760    0.0000 C   0  0  0  0  0  0  0  0  0  0  0  0
    2.9560   -0.1230    0.0000 C   0  0  0  0  0  0  0  0  0  0  0  0
    2.0900   -0.6220    0.0000 C   0  0  0  0  0  0  0  0  0  0  0  0
    2.0890   -1.6220    0.0000 C   0  0  0  0  0  0  0  0  0  0  0  0
   -3.1070   -1.6180    0.0000 C   0  0  0  0  0  0  0  0  0  0  0  0
   -3.9730   -2.1180    0.0000 C   0  0  0  0  0  0  0  0  0  0  0  0
   -3.9740   -3.1180    0.0000 O   0  0  0  0  0  0  0  0  0  0  0  0
   -4.8400   -3.6170    0.0000 C   0  0  0  0  0  0  0  0  0  0  0  0
   -4.8390   -1.6170    0.0000 C   0  0  0  0  0  0  0  0  0  0  0  0
  1  2  1  0  0  0  0
  2  3  1  0  0  0  0
  3  4  1  0  0  0  0
  3 29  2  0  0  0  0
  4  5  2  0  0  0  0
  5  6  1  0  0  0  0
  5 25  1  0  0  0  0
  6  7  2  0  0  0  0
  7  8  1  0  0  0  0
  8  9  2  0  0  0  0
  8 10  1  0  0  0  0
 10 11  1  0  0  0  0
 11 12  1  0  0  0  0
 11 23  2  0  0  0  0
 12 13  2  0  0  0  0
 13 14  1  0  0  0  0
 14 15  1  0  0  0  0
 14 22  2  0  0  0  0
 15 16  1  0  0  0  0
 15 21  1  0  0  0  0
 16 17  1  0  0  0  0
 17 18  1  0  0  0  0
 18 19  1  0  0  0  0
 18 20  1  0  0  0  0
 20 21  1  0  0  0  0
 22 23  1  0  0  0  0
 23 24  1  0  0  0  0
 25 26  2  0  0  0  0
 26 27  1  0  0  0  0
 26 29  1  0  0  0  0
 27 28  1  0  0  0  0
M  CHG  1  18   1
M  END
> <name>
decoy16

> <label>
0

$$$$
decoy17
  -OEChem-10082421392D

 31 33  0     0  0  0  0  0  0999 V2000
    6.3390    2.4080    0.0000 C   0  0  0  0  0  0  0  0  0  0  0  0
    6.3400    1.4080    0.0000 O   0  0  0  0  0  0  0  0  0  0  0  0
    5.4750    0.9080    0.0000 C   0  0  0  0  0  0  0  0  0  0  0  0
    4.6080    1.4070    0.0000 C   0  0  0  0  0  0  0  0  0  0  0  0
    3.7430    0.9060    0.0000 C   0  0  0  0  0  0  0  0  0  0  0  0
    3.7430   -0.0940    0.0000 C   0  0  0  0  0  0  0  0  0  0  0  0
    2.8780   -0.5940    0.0000 C   0  0  0  0  0  0  0  0  0  0  0  0
    2.0110   -0.0950    0.0000 C   0  0  0  0  0  0  0  0  0  0  0  0
    1.1460   -0.5960    0.0000 C   0  0  0  0  0  0  0  0  0  0  0  0
    1.1470   -1.5960    0.0000 O   0  0  0  0  0  0  0  0  0  0  0  0
    0.2790   -0.0970    0.0000 N   0  0  0  0  0  0  0  0  0  0  0  0
   -0.5860   -0.5970    0.0000 C   0  0  0  0  0  0  0  0  0  0  0  0
   -0.5850   -1.5970    0.0000 C   0  0  0  0  0  0  0  0  0  0  0  0
   -1.4510   -2.0980    0.0000 C   0  0  0  0  0  0  0  0  0  0  0  0
   -2.3170   -1.5990    0.0000 C   0  0  0  0  0  0  0  0  0  0  0  0
   -2.3180   -0.5990    0.0000 C   0  0  0  0  0  0  0  0  0  0  0  0
   -3.1850   -0.0990    0.0000 C   0  0  0  0  0  0  0  0  0  0  0  0
   -3.1850    0.9010    0.0000 O   0  0  0  0  0  0  0  0  0  0  0  0
   -4.0500   -0.6000    0.0000 N   0  0  0  0  0  0  0  0  0  0  0  0
   -4.9160   -0.1010    0.0000 C   0  0  0  0  0  0  0  0  0  0  0  0
   -4.9170    0.8990    0.0000 C   0  0  0  0  0  0  0  0  0  0  0  0
   -5.7840    1.3990    0.0000 C   0  0  0  0  0  0  0  0  0  0  0  0
   -6.6490    0.8980    0.0000 C   0  0  0  0  0  0  0  0  0  0  0  0
   -7.5160    1.3970    0.0000 F   0  0  0  0  0  0  0  0  0  0  0  0
   -6.6490   -0.1020    0.0000 C   0  0  0  0  0  0  0  0  0  0  0  0
   -5.7820   -0.6010    0.0000 C   0  0  0  0  0  0  0  0  0  0  0  0
   -1.4530   -0.0980    0.0000 C   0  0  0  0  0  0  0  0  0  0  0  0
    4.6100   -0.5930    0.0000 C   0  0  0  0  0  0  0  0  0  0  0  0
    5.4760   -0.0920    0.0000 C   0  0  0  0  0  0  0  0  0  0  0  0
    6.3420   -0.5920    0.0000 O   0  0  0  0  0  0  0  0  0  0  0  0
    7.2070   -0.0910    0.0000 C   0  0  0  0  0  0  0  0  0  0  0  0
  1  2  1  0  0  0  0
  2  3  1  0  0  0  0
  3  4  1  0  0  0  0
  3 29  2  0  0  0  0
  4  5  2  0  0  0  0
  5  6  1  0  0  0  0
  6  7  1  0  0  0  0
  6 28  2  0  0  0  0
  7  8  2  0  0  0  0
  8  9  1  0  0  0  0
  9 10  2  0  0  0  0
  9 11  1  0  0  0  0
 11 12  1  0  0  0  0
 12 13  1  0  0  0  0
 12 27  2  0  0  0  0
 13 14  2  0  0  0  0
 14 15  1  0  0  0  0
 15 16  2  0  0  0  0
 16 17  1  0  0  0  0
 16 27  1  0  0  0  0
 17 18  2  0  0  0  0
 17 19  1  0  0  0  0
 19 20  1  0  0  0  0
 20 21  1  0  0  0  0
 20 26  2  0  0  0  0
 21 22  2  0  0  0  0
 22 23  1  0  0  0  0
 23 24  1  0  0  0  0
 23 25  2  0  0  0  0
 25 26  1  0  0  0  0
 28 29  1  0  0  0  0
 29 30  1  0  0  0  0
 30 31  1  0  0  0  0
M  END
> <name>
decoy17

> <label>
0

$$$$
decoy18
  -OEChem-10082421392D

 29 31  0     0  0  0  0  0  0999 V2000
   -6.7500   -1.6150    0.0000 C   0  0  0  0  0  0  0  0  0  0  0  0
   -5.8840   -2.1160    0.0000 O   0  0  0  0  0  0  0  0  0  0  0  0
   -5.0180   -1.6170    0.0000 C   0  0  0  0  0  0  0  0  0  0  0  0
   -5.0170   -0.6170    0.0000 C   0  0  0  0  0  0  0  0  0  0  0  0
   -4.1510   -0.1170    0.0000 C   0  0  0  0  0  0  0  0  0  0  0  0
   -3.2850   -0.6180    0.0000 C   0  0  0  0  0  0  0  0  0  0  0  0
   -2.4190   -0.1190    0.0000 C   0  0  0  0  0  0  0  0  0  0  0  0
   -1.5530   -0.6190    0.0000 C   0  0  0  0  0  0  0  0  0  0  0  0
   -0.6870   -0.1200    0.0000 C   0  0  0  0  0  0  0  0  0  0  0  0
   -0.6860    0.8800    0.0000 O   0  0  0  0  0  0  0  0  0  0  0  0
    0.1790   -0.6210    0.0000 N   0  0  0  0  0  0  0  0  0  0  0  0
    1.0450   -0.1220    0.0000 C   0  0  0  0  0  0  0  0  0  0  0  0
    1.0460    0.8780    0.0000 C   0  0  0  0  0  0  0  0  0  0  0  0
    1.9120    1.3780    0.0000 C   0  0  0  0  0  0  0  0  0  0  0  0
    2.7780    0.8770    0.0000 C   0  0  0  0  0  0  0  0  0  0  0  0
    3.6440    1.3760    0.0000 N   0  0  0  0  0  0  0  0  0  0  0  0
    3.6450    2.3760    0.0000 C   0  0  0  0  0  0  0  0  0  0  0  0
    4.5120    2.8760    0.0000 C   0  0  0  0  0  0  0  0  0  0  0  0
    5.3770    2.3750    0.0000 N   0  3  0  0  0  0  0  0  0  0  0  0
    6.2440    2.8740    0.0000 C   0  0  0  0  0  0  0  0  0  0  0  0
    5.3760    1.3750    0.0000 C   0  0  0  0  0  0  0  0  0  0  0  0
    4.5100    0.8760    0.0000 C   0  0  0  0  0  0  0  0  0  0  0  0
    2.7770   -0.1230    0.0000 C   0  0  0  0  0  0  0  0  0  0  0  0
    1.9110   -0.6220    0.0000 C   0  0  0  0  0  0  0  0  0  0  0  0
    1.9100   -1.6220    0.0000 C   0  0  0  0  0  0  0  0  0  0  0  0
   -3.2860   -1.6180    0.0000 C   0  0  0  0  0  0  0  0  0  0  0  0
   -2.4200   -2.1190    0.0000 O   0  0  0  0  0  0  0  0  0  0  0  0
   -1.5540   -1.6190    0.0000 C   0  0  0  0  0  0  0  0  0  0  0  0
   -4.1520   -2.1170    0.0000 C   0  0  0  0  0  0  0  0  0  0  0  0
  1  2  1  0  0  0  0
  2  3  1  0  0  0  0
  3  4  2  0  0  0  0
  3 29  1  0  0  0  0
  4  5  1  0  0  0  0
  5  6  2  0  0  0  0
  6  7  1  0  0  0  0
  6 26  1  0  0  0  0
  7  8  2  0  0  0  0
  8  9  1  0  0  0  0
  9 10  2  0  0  0  0
  9 11  1  0  0  0  0
 11 12  1  0  0  0  0
 12 13  1  0  0  0  0
 12 24  2  0  0  0  0
 13 14  2  0  0  0  0
 14 15  1  0  0  0  0
 15 16  1  0  0  0  0
 15 23  2  0  0  0  0
 16 17  1  0  0  0  0
 16 22  1  0  0  0  0
 17 18  1  0  0  0  0
 18 19  1  0  0  0  0
 19 20  1  0  0  0  0
 19 21  1  0  0  0  0
 21 22  1  0  0  0  0
 23 24  1  0  0  0  0
 24 25  1  0  0  0  0
 26 27  1  0  0  0  0
 26 29  2  0  0  0  0
 27 28  1  0  0  0  0
M  CHG  1  19   1
M  END
> <name>
decoy18

> <label>
0

$$$$
decoy19
  -OEChem-10082421392D

 29 31  0     0  0  0  0  0  0999 V2000
    3.1860   -2.5540    0.0000 C   0  0  0  0  0  0  0  0  0  0  0  0
    2.3180   -3.0510    0.0000 O   0  0  0  0  0  0  0  0  0  0  0  0
    1.4550   -2.5480    0.0000 C   0  0  0  0  0  0  0  0  0  0  0  0
    1.4560   -1.5490    0.0000 C   0  0  0  0  0  0  0  0  0  0  0  0
    0.5940   -1.0440    0.0000 C   0  0  0  0  0  0  0  0  0  0  0  0
   -0.2760   -1.5420    0.0000 C   0  0  0  0  0  0  0  0  0  0  0  0
   -1.1400   -1.0390    0.0000 C   0  0  0  0  0  0  0  0  0  0  0  0
   -1.1360   -0.0390    0.0000 C   0  0  0  0  0  0  0  0  0  0  0  0
   -2.0000    0.4650    0.0000 N   0  0  0  0  0  0  0  0  0  0  0  0
   -1.9960    1.4650    0.0000 C   0  0  0  0  0  0  0  0  0  0  0  0
   -1.1290    1.9610    0.0000 O   0  0  0  0  0  0  0  0  0  0  0  0
   -2.8600    1.9670    0.0000 C   0  0  0  0  0  0  0  0  0  0  0  0
   -3.7750    1.5650    0.0000 C   0  0  0  0  0  0  0  0  0  0  0  0
   -4.4420    2.3090    0.0000 C   0  0  0  0  0  0  0  0  0  0  0  0
   -3.9390    3.1740    0.0000 C   0  0  0  0  0  0  0  0  0  0  0  0
   -4.3430    4.0880    0.0000 Br  0  0  0  0  0  0  0  0  0  0  0  0
   -2.9620    2.9620    0.0000 O   0  0  0  0  0  0  0  0  0  0  0  0
   -0.2680    0.4580    0.0000 C   0  0  0  0  0  0  0  0  0  0  0  0
   -0.2640    1.4580    0.0000 O   0  0  0  0  0  0  0  0  0  0  0  0
    0.5960   -0.0450    0.0000 N   0  0  0  0  0  0  0  0  0  0  0  0
    1.4640    0.4520    0.0000 C   0  0  0  0  0  0  0  0  0  0  0  0
    2.3270   -0.0510    0.0000 C   0  0  0  0  0  0  0  0  0  0  0  0
    3.1970    0.4470    0.0000 C   0  0  0  0  0  0  0  0  0  0  0  0
    4.0600   -0.0580    0.0000 C   0  0  0  0  0  0  0  0  0  0  0  0
    4.0580   -1.0570    0.0000 C   0  0  0  0  0  0  0  0  0  0  0  0
    3.1880   -1.5550    0.0000 C   0  0  0  0  0  0  0  0  0  0  0  0
    2.3260   -1.0510    0.0000 C   0  0  0  0  0  0  0  0  0  0  0  0
   -0.2780   -2.5410    0.0000 C   0  0  0  0  0  0  0  0  0  0  0  0
    0.5850   -3.0460    0.0000 C   0  0  0  0  0  0  0  0  0  0  0  0
  1  2  1  0  0  0  0
  2  3  1  0  0  0  0
  3  4  1  0  0  0  0
  3 29  2  0  0  0  0
  4  5  2  0  0  0  0
  5  6  1  0  0  0  0
  6  7  1  0  0  0  0
  6 28  2  0  0  0  0
  7  8  2  0  0  0  0
  8  9  1  0  0  0  0
  8 18  1  0  0  0  0
  9 10  1  0  0  0  0
 10 11  2  0  0  0  0
 10 12  1  0  0  0  0
 12 13  2  0  0  0  0
 12 17  1  0  0  0  0
 13 14  1  0  0  0  0
 14 15  2  0  0  0  0
 15 16  1  0  0  0  0
 15 17  1  0  0  0  0
 18 19  2  0  0  0  0
 18 20  1  0  0  0  0
 20 21  1  0  0  0  0
 21 22  1  0  0  0  0
 22 23  1  0  0  0  0
 22 27  2  0  0  0  0
 23 24  2  0  0  0  0
 24 25  1  0  0  0  0
 25 26  2  0  0  0  0
 26 27  1  0  0  0  0
 28 29  1  0  0  0  0
M  END
> <name>
decoy19

> <label>
0

$$$$
decoy20
  -OEChem-10082421392D

 31 34  0     0  0  0  0  0  0999 V2000
    2.9150    2.4220    0.0000 C   0  0  0  0  0  0  0  0  0  0  0  0
    2.0490    2.9220    0.0000 O   0  0  0  0  0  0  0  0  0  0  0  0
    1.1830    2.4240    0.0000 C   0  0  0  0  0  0  0  0  0  0  0  0
    1.1820    1.4210    0.0000 C   0  0  0  0  0  0  0  0  0  0  0  0
    0.3150    0.9240    0.0000 C   0  0  0  0  0  0  0  0  0  0  0  0
   -0.5510    1.4230    0.0000 C   0  0  0  0  0  0  0  0  0  0  0  0
   -1.4170    0.9240    0.0000 C   0  0  0  0  0  0  0  0  0  0  0  0
   -1.4180   -0.0760    0.0000 C   0  0  0  0  0  0  0  0  0  0  0  0
   -2.2840   -0.5750    0.0000 N   0  0  0  0  0  0  0  0  0  0  0  0
   -3.1500   -0.0740    0.0000 C   0  0  0  0  0  0  0  0  0  0  0  0
   -3.1490    0.9260    0.0000 O   0  0  0  0  0  0  0  0  0  0  0  0
   -4.0160   -0.5730    0.0000 C   0  0  0  0  0  0  0  0  0  0  0  0
   -4.1220   -1.5670    0.0000 C   0  0  0  0  0  0  0  0  0  0  0  0
   -5.0990   -1.7750    0.0000 C   0  0  0  0  0  0  0  0  0  0  0  0
   -5.5990   -0.9080    0.0000 C   0  0  0  0  0  0  0  0  0  0  0  0
   -4.9290   -0.1660    0.0000 O   0  0  0  0  0  0  0  0  0  0  0  0
   -0.5520   -0.5760    0.0000 C   0  0  0  0  0  0  0  0  0  0  0  0
   -0.5530   -1.5760    0.0000 O   0  0  0  0  0  0  0  0  0  0  0  0
    0.3140   -0.0770    0.0000 N   0  0  0  0  0  0  0  0  0  0  0  0
    1.1810   -0.5780    0.0000 C   0  0  0  0  0  0  0  0  0  0  0  0
    1.1780   -1.5780    0.0000 C   0  0  0  0  0  0  0  0  0  0  0  0
    2.0460   -2.0780    0.0000 C   0  0  0  0  0  0  0  0  0  0  0  0
    2.9110   -1.5790    0.0000 C   0  0  0  0  0  0  0  0  0  0  0  0
    3.7770   -2.0790    0.0000 C   0  0  0  0  0  0  0  0  0  0  0  0
    4.6430   -1.5800    0.0000 C   0  0  0  0  0  0  0  0  0  0  0  0
    4.6450   -0.5790    0.0000 C   0  0  0  0  0  0  0  0  0  0  0  0
    3.7780   -0.0800    0.0000 C   0  0  0  0  0  0  0  0  0  0  0  0
    2.9130   -0.5790    0.0000 C   0  0  0  0  0  0  0  0  0  0  0  0
    2.0460   -0.0790    0.0000 C   0  0  0  0  0  0  0  0  0  0  0  0
   -0.5500    2.4250    0.0000 C   0  0  0  0  0  0  0  0  0  0  0  0
    0.3170    2.9220    0.0000 C   0  0  0  0  0  0  0  0  0  0  0  0
  1  2  1  0  0  0  0
  2  3  1  0  0  0  0
  3  4  1  0  0  0  0
  3 31  2  0  0  0  0
  4  5  2  0  0  0  0
  5  6  1  0  0  0  0
  6  7  1  0  0  0  0
  6 30  2  0  0  0  0
  7  8  2  0  0  0  0
  8  9  1  0  0  0  0
  8 17  1  0  0  0  0
  9 10  1  0  0  0  0
 10 11  2  0  0  0  0
 10 12  1  0  0  0  0
 12 13  2  0  0  0  0
 12 16  1  0  0  0  0
 13 14  1  0  0  0  0
 14 15  2  0  0  0  0
 15 16  1  0  0  0  0
 17 18  2  0  0  0  0
 17 19  1  0  0  0  0
 19 20  1  0  0  0  0
 20 21  1  0  0  0  0
 20 29  2  0  0  0  0
 21 22  2  0  0  0  0
 22 23  1  0  0  0  0
 23 24  2  0  0  0  0
 23 28  1  0  0  0  0
 24 25  1  0  0  0  0
 25 26  2  0  0  0  0
 26 27  1  0  0  0  0
 27 28  2  0  0  0  0
 28 29  1  0  0  0  0
 30 31  1  0  0  0  0
M  END
> <name>
decoy20

> <label>
0

$$$$
decoy21
  -OEChem-10082421392D

 31 34  0     0  0  0  0  0  0999 V2000
    2.4860    4.1220    0.0000 C   0  0  0  0  0  0  0  0  0  0  0  0
    2.4870    3.1220    0.0000 O   0  0  0  0  0  0  0  0  0  0  0  0
    1.6230    2.6200    0.0000 C   0  0  0  0  0  0  0  0  0  0  0  0
    0.7540    3.1200    0.0000 C   0  0  0  0  0  0  0  0  0  0  0  0
   -0.1090    2.6160    0.0000 C   0  0  0  0  0  0  0  0  0  0  0  0
   -0.1090    1.6170    0.0000 C   0  0  0  0  0  0  0  0  0  0  0  0
   -0.9730    1.1150    0.0000 C   0  0  0  0  0  0  0  0  0  0  0  0
   -0.9710    0.1150    0.0000 C   0  0  0  0  0  0  0  0  0  0  0  0
   -1.8360   -0.3870    0.0000 N   0  0  0  0  0  0  0  0  0  0  0  0
   -2.7030    0.1110    0.0000 C   0  0  0  0  0  0  0  0  0  0  0  0
   -2.7050    1.1110    0.0000 O   0  0  0  0  0  0  0  0  0  0  0  0
   -3.5670   -0.3900    0.0000 C   0  0  0  0  0  0  0  0  0  0  0  0
   -4.4820    0.0140    0.0000 C   0  0  0  0  0  0  0  0  0  0  0  0
   -5.1500   -0.7290    0.0000 C   0  0  0  0  0  0  0  0  0  0  0  0
   -4.6480   -1.5950    0.0000 C   0  0  0  0  0  0  0  0  0  0  0  0
   -3.6710   -1.3850    0.0000 O   0  0  0  0  0  0  0  0  0  0  0  0
   -0.1040   -0.3830    0.0000 C   0  0  0  0  0  0  0  0  0  0  0  0
   -0.1020   -1.3830    0.0000 O   0  0  0  0  0  0  0  0  0  0  0  0
    0.7610    0.1180    0.0000 N   0  0  0  0  0  0  0  0  0  0  0  0
    1.6290   -0.3800    0.0000 C   0  0  0  0  0  0  0  0  0  0  0  0
    2.4930    0.1210    0.0000 C   0  0  0  0  0  0  0  0  0  0  0  0
    3.3620   -0.3760    0.0000 C   0  0  0  0  0  0  0  0  0  0  0  0
    3.3610   -1.3760    0.0000 C   0  0  0  0  0  0  0  0  0  0  0  0
    2.4980   -1.8780    0.0000 C   0  0  0  0  0  0  0  0  0  0  0  0
    2.4980   -2.8780    0.0000 C   0  0  0  0  0  0  0  0  0  0  0  0
    1.6350   -3.3790    0.0000 C   0  0  0  0  0  0  0  0  0  0  0  0
    0.7660   -2.8820    0.0000 C   0  0  0  0  0  0  0  0  0  0  0  0
    0.7660   -1.8810    0.0000 C   0  0  0  0  0  0  0  0  0  0  0  0
    1.6300   -1.3800    0.0000 C   0  0  0  0  0  0  0  0  0  0  0  0
    0.7600    1.1180    0.0000 C   0  0  0  0  0  0  0  0  0  0  0  0
    1.6230    1.6210    0.0000 C   0  0  0  0  0  0  0  0  0  0  0  0
  1  2  1  0  0  0  0
  2  3  1  0  0  0  0
  3  4  1  0  0  0  0
  3 31  2  0  0  0  0
  4  5  2  0  0  0  0
  5  6  1  0  0  0  0
  6  7  1  0  0  0  0
  6 30  2  0  0  0  0
  7  8  2  0  0  0  0
  8  9  1  0  0  0  0
  8 17  1  0  0  0  0
  9 10  1  0  0  0  0
 10 11  2  0  0  0  0
 10 12  1  0  0  0  0
 12 13  2  0  0  0  0
 12 16  1  0  0  0  0
 13 14  1  0  0  0  0
 14 15  2  0  0  0  0
 15 16  1  0  0  0  0
 17 18  2  0  0  0  0
 17 19  1  0  0  0  0
 19 20  1  0  0  0  0
 20 21  1  0  0  0  0
 20 29  2  0  0  0  0
 21 22  2  0  0  0  0
 22 23  1  0  0  0  0
 23 24  2  0  0  0  0
 24 25  1  0  0  0  0
 24 29  1  0  0  0  0
 25 26  2  0  0  0  0
 26 27  1  0  0  0  0
 27 28  2  0  0  0  0
 28 29  1  0  0  0  0
 30 31  1  0  0  0  0
M  END
> <name>
decoy21

> <label>
0

$$$$
decoy22
  -OEChem-10082421392D

 30 32  0     1  0  0  0  0  0999 V2000
   -7.0200    2.7280    0.0000 C   0  0  0  0  0  0  0  0  0  0  0  0
   -7.0170    1.7280    0.0000 O   0  0  0  0  0  0  0  0  0  0  0  0
   -6.1490    1.2300    0.0000 C   0  0  0  0  0  0  0  0  0  0  0  0
   -5.2850    1.7320    0.0000 C   0  0  0  0  0  0  0  0  0  0  0  0
   -4.4170    1.2350    0.0000 C   0  0  0  0  0  0  0  0  0  0  0  0
   -4.4140    0.2350    0.0000 C   0  0  0  0  0  0  0  0  0  0  0  0
   -3.5470   -0.2630    0.0000 C   0  0  0  0  0  0  0  0  0  0  0  0
   -2.6820    0.2400    0.0000 C   0  0  0  0  0  0  0  0  0  0  0  0
   -1.8150   -0.2580    0.0000 C   0  0  0  0  0  0  0  0  0  0  0  0
   -1.8120   -1.2580    0.0000 O   0  0  0  0  0  0  0  0  0  0  0  0
   -0.9500    0.2440    0.0000 N   0  0  0  0  0  0  0  0  0  0  0  0
   -0.0830   -0.2530    0.0000 C   0  0  2  0  0  0  0  0  0  0  0  0
   -0.0800   -1.2530    0.0000 C   0  0  0  0  0  0  0  0  0  0  0  0
    0.7820    0.2500    0.0000 C   0  0  0  0  0  0  0  0  0  0  0  0
    0.7790    1.2500    0.0000 O   0  0  0  0  0  0  0  0  0  0  0  0
    1.6490   -0.2480    0.0000 N   0  0  0  0  0  0  0  0  0  0  0  0
    2.5140    0.2540    0.0000 C   0  0  2  0  0  0  0  0  0  0  0  0
    2.5110    1.2540    0.0000 C   0  0  0  0  0  0  0  0  0  0  0  0
    3.3810   -0.2430    0.0000 C   0  0  0  0  0  0  0  0  0  0  0  0
    3.4880   -1.2380    0.0000 O   0  0  0  0  0  0  0  0  0  0  0  0
    4.4670   -1.4430    0.0000 C   0  0  0  0  0  0  0  0  0  0  0  0
    4.9700   -2.3070    0.0000 C   0  0  0  0  0  0  0  0  0  0  0  0
    5.9700   -2.3040    0.0000 C   0  0  0  0  0  0  0  0  0  0  0  0
    6.4670   -1.4370    0.0000 C   0  0  0  0  0  0  0  0  0  0  0  0
    5.9640   -0.5720    0.0000 C   0  0  0  0  0  0  0  0  0  0  0  0
    4.9650   -0.5750    0.0000 C   0  0  0  0  0  0  0  0  0  0  0  0
    4.2930    0.1660    0.0000 C   0  0  0  0  0  0  0  0  0  0  0  0
    4.4990    1.1450    0.0000 C   0  0  0  0  0  0  0  0  0  0  0  0
   -5.2790   -0.2680    0.0000 C   0  0  0  0  0  0  0  0  0  0  0  0
   -6.1470    0.2300    0.0000 C   0  0  0  0  0  0  0  0  0  0  0  0
  1  2  1  0  0  0  0
  2  3  1  0  0  0  0
  3  4  1  0  0  0  0
  3 30  2  0  0  0  0
  4  5  2  0  0  0  0
  5  6  1  0  0  0  0
  6  7  1  0  0  0  0
  6 29  2  0  0  0  0
  7  8  2  0  0  0  0
  8  9  1  0  0  0  0
  9 10  2  0  0  0  0
  9 11  1  0  0  0  0
 11 12  1  0  0  0  0
 12 13  1  1  0  0  0
 12 14  1  0  0  0  0
 14 15  2  0  0  0  0
 14 16  1  0  0  0  0
 16 17  1  0  0  0  0
 17 18  1  6  0  0  0
 17 19  1  0  0  0  0
 19 20  1  0  0  0  0
 19 27  2  0  0  0  0
 20 21  1  0  0  0  0
 21 22  1  0  0  0  0
 21 26  2  0  0  0  0
 22 23  2  0  0  0  0
 23 24  1  0  0  0  0
 24 25  2  0  0  0  0
 25 26  1  0  0  0  0
 26 27  1  0  0  0  0
 27 28  1  0  0  0  0
 29 30  1  0  0  0  0
M  END
> <name>
decoy22

> <label>
0

$$$$
decoy23
  -OEChem-10082421392D

 27 29  0     0  0  0  0  0  0999 V2000
   -6.8970   -1.7540    0.0000 C   0  0  0  0  0  0  0  0  0  0  0  0
   -6.0320   -2.2540    0.0000 O   0  0  0  0  0  0  0  0  0  0  0  0
   -5.1660   -1.7550    0.0000 C   0  0  0  0  0  0  0  0  0  0  0  0
   -4.3000   -2.2560    0.0000 C   0  0  0  0  0  0  0  0  0  0  0  0
   -3.4330   -1.7560    0.0000 C   0  0  0  0  0  0  0  0  0  0  0  0
   -3.4320   -0.7560    0.0000 C   0  0  0  0  0  0  0  0  0  0  0  0
   -2.5660   -0.2570    0.0000 C   0  0  0  0  0  0  0  0  0  0  0  0
   -1.7000   -0.7580    0.0000 C   0  0  0  0  0  0  0  0  0  0  0  0
   -0.8340   -0.2590    0.0000 C   0  0  0  0  0  0  0  0  0  0  0  0
   -0.8330    0.7410    0.0000 O   0  0  0  0  0  0  0  0  0  0  0  0
    0.0320   -0.7590    0.0000 N   0  0  0  0  0  0  0  0  0  0  0  0
    0.8980   -0.2600    0.0000 C   0  0  0  0  0  0  0  0  0  0  0  0
    0.8980    0.7400    0.0000 C   0  0  0  0  0  0  0  0  0  0  0  0
    1.7650    1.2390    0.0000 C   0  0  0  0  0  0  0  0  0  0  0  0
    2.6310    0.7390    0.0000 C   0  0  0  0  0  0  0  0  0  0  0  0
    3.4970    1.2380    0.0000 N   0  0  0  0  0  0  0  0  0  0  0  0
    3.4980    2.2380    0.0000 C   0  0  0  0  0  0  0  0  0  0  0  0
    4.3640    2.7370    0.0000 C   0  0  0  0  0  0  0  0  0  0  0  0
    5.2300    2.2360    0.0000 N   0  3  0  0  0  0  0  0  0  0  0  0
    6.0960    2.7360    0.0000 C   0  0  0  0  0  0  0  0  0  0  0  0
    5.2290    1.2360    0.0000 C   0  0  0  0  0  0  0  0  0  0  0  0
    4.3630    0.7370    0.0000 C   0  0  0  0  0  0  0  0  0  0  0  0
    2.6300   -0.2620    0.0000 C   0  0  0  0  0  0  0  0  0  0  0  0
    1.7640   -0.7610    0.0000 C   0  0  0  0  0  0  0  0  0  0  0  0
    1.7630   -1.7610    0.0000 C   0  0  0  0  0  0  0  0  0  0  0  0
   -4.2980   -0.2560    0.0000 C   0  0  0  0  0  0  0  0  0  0  0  0
   -5.1650   -0.7550    0.0000 C   0  0  0  0  0  0  0  0  0  0  0  0
  1  2  1  0  0  0  0
  2  3  1  0  0  0  0
  3  4  1  0  0  0  0
  3 27  2  0  0  0  0
  4  5  2  0  0  0  0
  5  6  1  0  0  0  0
  6  7  1  0  0  0  0
  6 26  2  0  0  0  0
  7  8  2  0  0  0  0
  8  9  1  0  0  0  0
  9 10  2  0  0  0  0
  9 11  1  0  0  0  0
 11 12  1  0  0  0  0
 12 13  1  0  0  0  0
 12 24  2  0  0  0  0
 13 14  2  0  0  0  0
 14 15  1  0  0  0  0
 15 16  1  0  0  0  0
 15 23  2  0  0  0  0
 16 17  1  0  0  0  0
 16 22  1  0  0  0  0
 17 18  1  0  0  0  0
 18 19  1  0  0  0  0
 19 20  1  0  0  0  0
 19 21  1  0  0  0  0
 21 22  1  0  0  0  0
 23 24  1  0  0  0  0
 24 25  1  0  0  0  0
 26 27  1  0  0  0  0
M  CHG  1  19   1
M  END
> <name>
decoy23

> <label>
0

$$$$
decoy24
  -OEChem-10082421392D

 30 32  0     0  0  0  0  0  0999 V2000
   -7.6480   -1.5230    0.0000 C   0  0  0  0  0  0  0  0  0  0  0  0
   -6.7820   -2.0220    0.0000 O   0  0  0  0  0  0  0  0  0  0  0  0
   -5.9160   -1.5220    0.0000 C   0  0  0  0  0  0  0  0  0  0  0  0
   -5.9170   -0.5210    0.0000 C   0  0  0  0  0  0  0  0  0  0  0  0
   -5.0520   -0.0210    0.0000 C   0  0  0  0  0  0  0  0  0  0  0  0
   -4.1850   -0.5200    0.0000 C   0  0  0  0  0  0  0  0  0  0  0  0
   -3.3200   -0.0190    0.0000 C   0  0  0  0  0  0  0  0  0  0  0  0
   -2.4530   -0.5190    0.0000 C   0  0  0  0  0  0  0  0  0  0  0  0
   -1.5880   -0.0180    0.0000 C   0  0  0  0  0  0  0  0  0  0  0  0
   -1.5880    0.9820    0.0000 O   0  0  0  0  0  0  0  0  0  0  0  0
   -0.7210   -0.5170    0.0000 N   0  0  0  0  0  0  0  0  0  0  0  0
    0.1440   -0.0170    0.0000 C   0  0  0  0  0  0  0  0  0  0  0  0
    0.1440    0.9840    0.0000 C   0  0  0  0  0  0  0  0  0  0  0  0
    1.0090    1.4840    0.0000 C   0  0  0  0  0  0  0  0  0  0  0  0
    1.8760    0.9850    0.0000 C   0  0  0  0  0  0  0  0  0  0  0  0
    2.7410    1.4860    0.0000 C   0  0  0  0  0  0  0  0  0  0  0  0
    1.8760   -0.0150    0.0000 C   0  0  0  0  0  0  0  0  0  0  0  0
    2.7430   -0.5140    0.0000 N   0  0  0  0  0  0  0  0  0  0  0  0
    3.6080   -0.0140    0.0000 S   0  0  0  0  0  0  0  0  0  0  0  0
    4.1090   -0.8800    0.0000 O   0  0  0  0  0  0  0  0  0  0  0  0
    3.1080    0.8520    0.0000 O   0  0  0  0  0  0  0  0  0  0  0  0
    4.4740    0.4870    0.0000 C   0  0  0  0  0  0  0  0  0  0  0  0
    5.3400   -0.0120    0.0000 C   0  0  0  0  0  0  0  0  0  0  0  0
    6.2060    0.4880    0.0000 C   0  0  0  0  0  0  0  0  0  0  0  0
    6.2050    1.4880    0.0000 C   0  0  0  0  0  0  0  0  0  0  0  0
    5.3390    1.9880    0.0000 C   0  0  0  0  0  0  0  0  0  0  0  0
    4.4730    1.4870    0.0000 C   0  0  0  0  0  0  0  0  0  0  0  0
    1.0110   -0.5160    0.0000 C   0  0  0  0  0  0  0  0  0  0  0  0
   -4.1840   -1.5200    0.0000 C   0  0  0  0  0  0  0  0  0  0  0  0
   -5.0500   -2.0210    0.0000 C   0  0  0  0  0  0  0  0  0  0  0  0
  1  2  1  0  0  0  0
  2  3  1  0  0  0  0
  3  4  1  0  0  0  0
  3 30  2  0  0  0  0
  4  5  2  0  0  0  0
  5  6  1  0  0  0  0
  6  7  1  0  0  0  0
  6 29  2  0  0  0  0
  7  8  2  0  0  0  0
  8  9  1  0  0  0  0
  9 10  2  0  0  0  0
  9 11  1  0  0  0  0
 11 12  1  0  0  0  0
 12 13  2  0  0  0  0
 12 28  1  0  0  0  0
 13 14  1  0  0  0  0
 14 15  2  0  0  0  0
 15 16  1  0  0  0  0
 15 17  1  0  0  0  0
 17 18  1  0  0  0  0
 17 28  2  0  0  0  0
 18 19  1  0  0  0  0
 19 20  2  0  0  0  0
 19 21  2  0  0  0  0
 19 22  1  0  0  0  0
 22 23  1  0  0  0  0
 22 27  2  0  0  0  0
 23 24  2  0  0  0  0
 24 25  1  0  0  0  0
 25 26  2  0  0  0  0
 26 27  1  0  0  0  0
 29 30  1  0  0  0  0
M  END
> <name>
decoy24

> <label>
0

$$$$
decoy25
  -OEChem-10082421392D

 29 31  0     0  0  0  0  0  0999 V2000
    6.8070    2.3850    0.0000 C   0  0  0  0  0  0  0  0  0  0  0  0
    6.8080    1.3850    0.0000 O   0  0  0  0  0  0  0  0  0  0  0  0
    5.9420    0.8840    0.0000 C   0  0  0  0  0  0  0  0  0  0  0  0
    5.9430   -0.1160    0.0000 C   0  0  0  0  0  0  0  0  0  0  0  0
    5.0770   -0.6170    0.0000 C   0  0  0  0  0  0  0  0  0  0  0  0
    4.2100   -0.1170    0.0000 C   0  0  0  0  0  0  0  0  0  0  0  0
    3.3450   -0.6180    0.0000 C   0  0  0  0  0  0  0  0  0  0  0  0
    2.4790   -0.1190    0.0000 C   0  0  0  0  0  0  0  0  0  0  0  0
    1.6130   -0.6190    0.0000 C   0  0  0  0  0  0  0  0  0  0  0  0
    1.6140   -1.6190    0.0000 O   0  0  0  0  0  0  0  0  0  0  0  0
    0.7470   -0.1200    0.0000 N   0  0  0  0  0  0  0  0  0  0  0  0
   -0.1190   -0.6210    0.0000 C   0  0  0  0  0  0  0  0  0  0  0  0
   -0.1180   -1.6210    0.0000 C   0  0  0  0  0  0  0  0  0  0  0  0
   -0.9840   -2.1210    0.0000 C   0  0  0  0  0  0  0  0  0  0  0  0
   -1.8500   -1.6220    0.0000 C   0  0  0  0  0  0  0  0  0  0  0  0
   -1.8510   -0.6220    0.0000 C   0  0  0  0  0  0  0  0  0  0  0  0
   -2.7170   -0.1230    0.0000 C   0  0  0  0  0  0  0  0  0  0  0  0
   -2.7180    0.8770    0.0000 O   0  0  0  0  0  0  0  0  0  0  0  0
   -3.5830   -0.6230    0.0000 N   0  0  0  0  0  0  0  0  0  0  0  0
   -4.4490   -0.1240    0.0000 C   0  0  0  0  0  0  0  0  0  0  0  0
   -4.4500    0.8760    0.0000 C   0  0  0  0  0  0  0  0  0  0  0  0
   -5.3160    1.3750    0.0000 C   0  0  0  0  0  0  0  0  0  0  0  0
   -6.1820    0.8740    0.0000 C   0  0  0  0  0  0  0  0  0  0  0  0
   -7.0480    1.3740    0.0000 F   0  0  0  0  0  0  0  0  0  0  0  0
   -6.1820   -0.1260    0.0000 C   0  0  0  0  0  0  0  0  0  0  0  0
   -5.3150   -0.6250    0.0000 C   0  0  0  0  0  0  0  0  0  0  0  0
   -0.9850   -0.1220    0.0000 C   0  0  0  0  0  0  0  0  0  0  0  0
    4.2100    0.8830    0.0000 C   0  0  0  0  0  0  0  0  0  0  0  0
    5.0760    1.3830    0.0000 C   0  0  0  0  0  0  0  0  0  0  0  0
  1  2  1  0  0  0  0
  2  3  1  0  0  0  0
  3  4  1  0  0  0  0
  3 29  2  0  0  0  0
  4  5  2  0  0  0  0
  5  6  1  0  0  0  0
  6  7  1  0  0  0  0
  6 28  2  0  0  0  0
  7  8  2  0  0  0  0
  8  9  1  0  0  0  0
  9 10  2  0  0  0  0
  9 11  1  0  0  0  0
 11 12  1  0  0  0  0
 12 13  1  0  0  0  0
 12 27  2  0  0  0  0
 13 14  2  0  0  0  0
 14 15  1  0  0  0  0
 15 16  2  0  0  0  0
 16 17  1  0  0  0  0
 16 27  1  0  0  0  0
 17 18  2  0  0  0  0
 17 19  1  0  0  0  0
 19 20  1  0  0  0  0
 20 21  1  0  0  0  0
 20 26  2  0  0  0  0
 21 22  2  0  0  0  0
 22 23  1  0  0  0  0
 23 24  1  0  0  0  0
 23 25  2  0  0  0  0
 25 26  1  0  0  0  0
 28 29  1  0  0  0  0
M  END
> <name>
decoy25

> <label>
0

$$$$
decoy26
  -OEChem-10082421392D

 30 32  0     0  0  0  0  0  0999 V2000
   -7.7990   -1.3720    0.0000 C   0  0  0  0  0  0  0  0  0  0  0  0
   -6.9350   -1.8750    0.0000 O   0  0  0  0  0  0  0  0  0  0  0  0
   -6.0670   -1.3780    0.0000 C   0  0  0  0  0  0  0  0  0  0  0  0
   -5.2030   -1.8810    0.0000 C   0  0  0  0  0  0  0  0  0  0  0  0
   -4.3350   -1.3840    0.0000 C   0  0  0  0  0  0  0  0  0  0  0  0
   -4.3320   -0.3850    0.0000 C   0  0  0  0  0  0  0  0  0  0  0  0
   -3.4640    0.1120    0.0000 C   0  0  0  0  0  0  0  0  0  0  0  0
   -2.5990   -0.3910    0.0000 C   0  0  0  0  0  0  0  0  0  0  0  0
   -1.7320    0.1060    0.0000 C   0  0  0  0  0  0  0  0  0  0  0  0
   -1.7280    1.1060    0.0000 O   0  0  0  0  0  0  0  0  0  0  0  0
   -0.8670   -0.3970    0.0000 N   0  0  0  0  0  0  0  0  0  0  0  0
    0.0000    0.1000    0.0000 C   0  0  0  0  0  0  0  0  0  0  0  0
    0.8650   -0.4030    0.0000 C   0  0  0  0  0  0  0  0  0  0  0  0
    1.7320    0.0940    0.0000 C   0  0  0  0  0  0  0  0  0  0  0  0
    1.7360    1.0940    0.0000 C   0  0  0  0  0  0  0  0  0  0  0  0
    2.6040    1.5910    0.0000 N   0  0  0  0  0  0  0  0  0  0  0  0
    3.4680    1.0880    0.0000 S   0  0  0  0  0  0  0  0  0  0  0  0
    3.9710    1.9520    0.0000 O   0  0  0  0  0  0  0  0  0  0  0  0
    2.9650    0.2230    0.0000 O   0  0  0  0  0  0  0  0  0  0  0  0
    4.3320    0.5840    0.0000 C   0  0  0  0  0  0  0  0  0  0  0  0
    5.2000    1.0810    0.0000 C   0  0  0  0  0  0  0  0  0  0  0  0
    6.0640    0.5780    0.0000 C   0  0  0  0  0  0  0  0  0  0  0  0
    6.0610   -0.4220    0.0000 C   0  0  0  0  0  0  0  0  0  0  0  0
    6.9250   -0.9250    0.0000 F   0  0  0  0  0  0  0  0  0  0  0  0
    5.1930   -0.9190    0.0000 C   0  0  0  0  0  0  0  0  0  0  0  0
    4.3290   -0.4150    0.0000 C   0  0  0  0  0  0  0  0  0  0  0  0
    0.8720    1.5970    0.0000 C   0  0  0  0  0  0  0  0  0  0  0  0
    0.0040    1.1000    0.0000 C   0  0  0  0  0  0  0  0  0  0  0  0
   -5.1960    0.1190    0.0000 C   0  0  0  0  0  0  0  0  0  0  0  0
   -6.0640   -0.3780    0.0000 C   0  0  0  0  0  0  0  0  0  0  0  0
  1  2  1  0  0  0  0
  2  3  1  0  0  0  0
  3  4  1  0  0  0  0
  3 30  2  0  0  0  0
  4  5  2  0  0  0  0
  5  6  1  0  0  0  0
  6  7  1  0  0  0  0
  6 29  2  0  0  0  0
  7  8  2  0  0  0  0
  8  9  1  0  0  0  0
  9 10  2  0  0  0  0
  9 11  1  0  0  0  0
 11 12  1  0  0  0  0
 12 13  1  0  0  0  0
 12 28  2  0  0  0  0
 13 14  2  0  0  0  0
 14 15  1  0  0  0  0
 15 16  1  0  0  0  0
 15 27  2  0  0  0  0
 16 17  1  0  0  0  0
 17 18  2  0  0  0  0
 17 19  2  0  0  0  0
 17 20  1  0  0  0  0
 20 21  1  0  0  0  0
 20 26  2  0  0  0  0
 21 22  2  0  0  0  0
 22 23  1  0  0  0  0
 23 24  1  0  0  0  0
 23 25  2  0  0  0  0
 25 26  1  0  0  0  0
 27 28  1  0  0  0  0
 29 30  1  0  0  0  0
M  END
> <name>
decoy26

> <label>
0

$$$$
decoy27
  -OEChem-10082421392D

 30 32  0     0  0  0  0  0  0999 V2000
    6.8970   -3.1560    0.0000 C   0  0  0  0  0  0  0  0  0  0  0  0
    6.8970   -2.1560    0.0000 O   0  0  0  0  0  0  0  0  0  0  0  0
    6.0320   -1.6550    0.0000 C   0  0  0  0  0  0  0  0  0  0  0  0
    6.0330   -0.6550    0.0000 C   0  0  0  0  0  0  0  0  0  0  0  0
    5.1670   -0.1540    0.0000 C   0  0  0  0  0  0  0  0  0  0  0  0
    4.3010   -0.6530    0.0000 C   0  0  0  0  0  0  0  0  0  0  0  0
    3.4350   -0.1530    0.0000 C   0  0  0  0  0  0  0  0  0  0  0  0
    2.5690   -0.6520    0.0000 C   0  0  0  0  0  0  0  0  0  0  0  0
    1.7030   -0.1510    0.0000 C   0  0  0  0  0  0  0  0  0  0  0  0
    1.7040    0.8490    0.0000 O   0  0  0  0  0  0  0  0  0  0  0  0
    0.8370   -0.6510    0.0000 N   0  0  0  0  0  0  0  0  0  0  0  0
   -0.0290   -0.1500    0.0000 C   0  0  0  0  0  0  0  0  0  0  0  0
   -0.0280    0.8500    0.0000 C   0  0  0  0  0  0  0  0  0  0  0  0
   -0.8940    1.3510    0.0000 C   0  0  0  0  0  0  0  0  0  0  0  0
   -1.7600    0.8520    0.0000 C   0  0  0  0  0  0  0  0  0  0  0  0
   -2.6260    1.3520    0.0000 S   0  0  0  0  0  0  0  0  0  0  0  0
   -2.1250    2.2180    0.0000 O   0  0  0  0  0  0  0  0  0  0  0  0
   -3.1260    0.4860    0.0000 O   0  0  0  0  0  0  0  0  0  0  0  0
   -3.4910    1.8530    0.0000 N   0  0  0  0  0  0  0  0  0  0  0  0
   -4.3580    1.3540    0.0000 C   0  0  0  0  0  0  0  0  0  0  0  0
   -4.3590    0.3540    0.0000 C   0  0  0  0  0  0  0  0  0  0  0  0
   -5.2250   -0.1460    0.0000 C   0  0  0  0  0  0  0  0  0  0  0  0
   -6.0910    0.3550    0.0000 C   0  0  0  0  0  0  0  0  0  0  0  0
   -6.9570   -0.1440    0.0000 F   0  0  0  0  0  0  0  0  0  0  0  0
   -6.0900    1.3550    0.0000 C   0  0  0  0  0  0  0  0  0  0  0  0
   -5.2230    1.8540    0.0000 C   0  0  0  0  0  0  0  0  0  0  0  0
   -1.7610   -0.1490    0.0000 C   0  0  0  0  0  0  0  0  0  0  0  0
   -0.8950   -0.6490    0.0000 C   0  0  0  0  0  0  0  0  0  0  0  0
    4.3000   -1.6540    0.0000 C   0  0  0  0  0  0  0  0  0  0  0  0
    5.1650   -2.1540    0.0000 C   0  0  0  0  0  0  0  0  0  0  0  0
  1  2  1  0  0  0  0
  2  3  1  0  0  0  0
  3  4  1  0  0  0  0
  3 30  2  0  0  0  0
  4  5  2  0  0  0  0
  5  6  1  0  0  0  0
  6  7  1  0  0  0  0
  6 29  2  0  0  0  0
  7  8  2  0  0  0  0
  8  9  1  0  0  0  0
  9 10  2  0  0  0  0
  9 11  1  0  0  0  0
 11 12  1  0  0  0  0
 12 13  1  0  0  0  0
 12 28  2  0  0  0  0
 13 14  2  0  0  0  0
 14 15  1  0  0  0  0
 15 16  1  0  0  0  0
 15 27  2  0  0  0  0
 16 17  2  0  0  0  0
 16 18  2  0  0  0  0
 16 19  1  0  0  0  0
 19 20  1  0  0  0  0
 20 21  1  0  0  0  0
 20 26  2  0  0  0  0
 21 22  2  0  0  0  0
 22 23  1  0  0  0  0
 23 24  1  0  0  0  0
 23 25  2  0  0  0  0
 25 26  1  0  0  0  0
 27 28  1  0  0  0  0
 29 30  1  0  0  0  0
M  END
> <name>
decoy27

> <label>
0

$$$$
decoy28
  -OEChem-10082421392D

 30 32  0     0  0  0  0  0  0999 V2000
    1.8270   -4.3460    0.0000 C   0  0  0  0  0  0  0  0  0  0  0  0
    0.9600   -3.8480    0.0000 O   0  0  0  0  0  0  0  0  0  0  0  0
    0.0950   -4.3500    0.0000 C   0  0  0  0  0  0  0  0  0  0  0  0
    0.0970   -5.3500    0.0000 C   0  0  0  0  0  0  0  0  0  0  0  0
   -0.7680   -5.8510    0.0000 C   0  0  0  0  0  0  0  0  0  0  0  0
   -1.6350   -5.3530    0.0000 C   0  0  0  0  0  0  0  0  0  0  0  0
   -2.5000   -5.8550    0.0000 C   0  0  0  0  0  0  0  0  0  0  0  0
   -1.6370   -4.3530    0.0000 C   0  0  0  0  0  0  0  0  0  0  0  0
   -0.7720   -3.8510    0.0000 C   0  0  0  0  0  0  0  0  0  0  0  0
   -0.7740   -2.8510    0.0000 C   0  0  0  0  0  0  0  0  0  0  0  0
    0.0910   -2.3500    0.0000 C   0  0  0  0  0  0  0  0  0  0  0  0
    0.0890   -1.3500    0.0000 C   0  0  0  0  0  0  0  0  0  0  0  0
   -0.7780   -0.8520    0.0000 O   0  0  0  0  0  0  0  0  0  0  0  0
    0.9540   -0.8480    0.0000 N   0  0  0  0  0  0  0  0  0  0  0  0
    0.9520    0.1520    0.0000 C   0  0  0  0  0  0  0  0  0  0  0  0
    1.8170    0.6540    0.0000 C   0  0  0  0  0  0  0  0  0  0  0  0
    1.8150    1.6540    0.0000 C   0  0  0  0  0  0  0  0  0  0  0  0
    0.9480    2.1520    0.0000 C   0  0  0  0  0  0  0  0  0  0  0  0
    0.9460    3.1520    0.0000 S   0  0  0  0  0  0  0  0  0  0  0  0
    1.9460    3.1540    0.0000 O   0  0  0  0  0  0  0  0  0  0  0  0
   -0.0540    3.1500    0.0000 O   0  0  0  0  0  0  0  0  0  0  0  0
    0.9440    4.1520    0.0000 N   0  0  0  0  0  0  0  0  0  0  0  0
    0.0770    4.6500    0.0000 C   0  0  0  0  0  0  0  0  0  0  0  0
   -0.7880    4.1480    0.0000 C   0  0  0  0  0  0  0  0  0  0  0  0
   -1.6550    4.6470    0.0000 C   0  0  0  0  0  0  0  0  0  0  0  0
   -1.6570    5.6470    0.0000 C   0  0  0  0  0  0  0  0  0  0  0  0
   -0.7920    6.1480    0.0000 C   0  0  0  0  0  0  0  0  0  0  0  0
    0.0750    5.6500    0.0000 C   0  0  0  0  0  0  0  0  0  0  0  0
    0.0830    1.6500    0.0000 C   0  0  0  0  0  0  0  0  0  0  0  0
    0.0850    0.6500    0.0000 C   0  0  0  0  0  0  0  0  0  0  0  0
  1  2  1  0  0  0  0
  2  3  1  0  0  0  0
  3  4  1  0  0  0  0
  3  9  2  0  0  0  0
  4  5  2  0  0  0  0
  5  6  1  0  0  0  0
  6  7  1  0  0  0  0
  6  8  2  0  0  0  0
  8  9  1  0  0  0  0
  9 10  1  0  0  0  0
 10 11  2  0  0  0  0
 11 12  1  0  0  0  0
 12 13  2  0  0  0  0
 12 14  1  0  0  0  0
 14 15  1  0  0  0  0
 15 16  1  0  0  0  0
 15 30  2  0  0  0  0
 16 17  2  0  0  0  0
 17 18  1  0  0  0  0
 18 19  1  0  0  0  0
 18 29  2  0  0  0  0
 19 20  2  0  0  0  0
 19 21  2  0  0  0  0
 19 22  1  0  0  0  0
 22 23  1  0  0  0  0
 23 24  1  0  0  0  0
 23 28  2  0  0  0  0
 24 25  2  0  0  0  0
 25 26  1  0  0  0  0
 26 27  2  0  0  0  0
 27 28  1  0  0  0  0
 29 30  1  0  0  0  0
M  END
> <name>
decoy28

> <label>
0

$$$$
decoy29
  -OEChem-10082421392D

 29 32  0     0  0  0  0  0  0999 V2000
    7.5580    1.1780    0.0000 C   0  0  0  0  0  0  0  0  0  0  0  0
    6.5570    1.1780    0.0000 C   0  0  0  0  0  0  0  0  0  0  0  0
    5.9710    0.3680    0.0000 N   0  0  0  0  0  0  0  0  0  0  0  0
    5.0190    0.6760    0.0000 C   0  0  0  0  0  0  0  0  0  0  0  0
    4.1540    0.1760    0.0000 C   0  0  0  0  0  0  0  0  0  0  0  0
    3.2870    0.6750    0.0000 C   0  0  0  0  0  0  0  0  0  0  0  0
    2.4220    0.1740    0.0000 N   0  0  0  0  0  0  0  0  0  0  0  0
    1.5550    0.6740    0.0000 C   0  0  0  0  0  0  0  0  0  0  0  0
    1.5540    1.6740    0.0000 O   0  0  0  0  0  0  0  0  0  0  0  0
    0.6900    0.1730    0.0000 C   0  0  0  0  0  0  0  0  0  0  0  0
   -0.1770    0.6720    0.0000 C   0  0  0  0  0  0  0  0  0  0  0  0
   -1.0420    0.1720    0.0000 C   0  0  0  0  0  0  0  0  0  0  0  0
   -1.9090    0.6710    0.0000 C   0  0  0  0  0  0  0  0  0  0  0  0
   -2.7750    0.1700    0.0000 C   0  0  0  0  0  0  0  0  0  0  0  0
   -2.7740   -0.8300    0.0000 C   0  0  0  0  0  0  0  0  0  0  0  0
   -3.6390   -1.3300    0.0000 O   0  0  0  0  0  0  0  0  0  0  0  0
   -4.5060   -0.8310    0.0000 C   0  0  0  0  0  0  0  0  0  0  0  0
   -5.3710   -1.3320    0.0000 C   0  0  0  0  0  0  0  0  0  0  0  0
   -5.3700   -2.3320    0.0000 C   0  0  0  0  0  0  0  0  0  0  0  0
   -6.2360   -2.8320    0.0000 C   0  0  0  0  0  0  0  0  0  0  0  0
   -7.1030   -2.3330    0.0000 C   0  0  0  0  0  0  0  0  0  0  0  0
   -7.1030   -1.3330    0.0000 C   0  0  0  0  0  0  0  0  0  0  0  0
   -6.2380   -0.8330    0.0000 N   0  0  0  0  0  0  0  0  0  0  0  0
   -1.9070   -1.3290    0.0000 C   0  0  0  0  0  0  0  0  0  0  0  0
   -1.0420   -0.8280    0.0000 C   0  0  0  0  0  0  0  0  0  0  0  0
    3.2860    1.6750    0.0000 C   0  0  0  0  0  0  0  0  0  0  0  0
    4.1520    2.1760    0.0000 C   0  0  0  0  0  0  0  0  0  0  0  0
    5.0180    1.6760    0.0000 C   0  0  0  0  0  0  0  0  0  0  0  0
    5.9690    1.9860    0.0000 O   0  0  0  0  0  0  0  0  0  0  0  0
  1  2  1  0  0  0  0
  2  3  2  0  0  0  0
  2 29  1  0  0  0  0
  3  4  1  0  0  0  0
  4  5  2  0  0  0  0
  4 28  1  0  0  0  0
  5  6  1  0  0  0  0
  6  7  1  0  0  0  0
  6 26  2  0  0  0  0
  7  8  1  0  0  0  0
  8  9  2  0  0  0  0
  8 10  1  0  0  0  0
 10 11  2  0  0  0  0
 11 12  1  0  0  0  0
 12 13  1  0  0  0  0
 12 25  2  0  0  0  0
 13 14  2  0  0  0  0
 14 15  1  0  0  0  0
 15 16  1  0  0  0  0
 15 24  2  0  0  0  0
 16 17  1  0  0  0  0
 17 18  1  0  0  0  0
 18 19  1  0  0  0  0
 18 23  2  0  0  0  0
 19 20  2  0  0  0  0
 20 21  1  0  0  0  0
 21 22  2  0  0  0  0
 22 23  1  0  0  0  0
 24 25  1  0  0  0  0
 26 27  1  0  0  0  0
 27 28  2  0  0  0  0
 28 29  1  0  0  0  0
M  END
> <name>
decoy29

> <label>
0

$$$$
decoy30
  -OEChem-10082421392D

 30 32  0     0  0  0  0  0  0999 V2000
    0.2440   -6.5000    0.0000 C   0  0  0  0  0  0  0  0  0  0  0  0
    0.2420   -5.5000    0.0000 O   0  0  0  0  0  0  0  0  0  0  0  0
    1.1070   -4.9980    0.0000 C   0  0  0  0  0  0  0  0  0  0  0  0
    1.9740   -5.4960    0.0000 C   0  0  0  0  0  0  0  0  0  0  0  0
    2.8390   -4.9940    0.0000 C   0  0  0  0  0  0  0  0  0  0  0  0
    2.8370   -3.9940    0.0000 C   0  0  0  0  0  0  0  0  0  0  0  0
    1.9700   -3.4960    0.0000 C   0  0  0  0  0  0  0  0  0  0  0  0
    1.1050   -3.9980    0.0000 C   0  0  0  0  0  0  0  0  0  0  0  0
    0.2380   -3.5000    0.0000 N   0  0  0  0  0  0  0  0  0  0  0  0
    0.2360   -2.5000    0.0000 S   0  0  0  0  0  0  0  0  0  0  0  0
   -0.7640   -2.5020    0.0000 O   0  0  0  0  0  0  0  0  0  0  0  0
    1.2360   -2.4980    0.0000 O   0  0  0  0  0  0  0  0  0  0  0  0
    0.2340   -1.5000    0.0000 C   0  0  0  0  0  0  0  0  0  0  0  0
   -0.6330   -1.0010    0.0000 C   0  0  0  0  0  0  0  0  0  0  0  0
   -0.6350   -0.0010    0.0000 C   0  0  0  0  0  0  0  0  0  0  0  0
    0.2300    0.5000    0.0000 C   0  0  0  0  0  0  0  0  0  0  0  0
    0.2280    1.5000    0.0000 C   0  0  0  0  0  0  0  0  0  0  0  0
   -0.6390    1.9990    0.0000 C   0  0  0  0  0  0  0  0  0  0  0  0
   -0.6410    2.9990    0.0000 C   0  0  0  0  0  0  0  0  0  0  0  0
    0.2240    3.5000    0.0000 O   0  0  0  0  0  0  0  0  0  0  0  0
   -1.5080    3.4970    0.0000 N   0  0  0  0  0  0  0  0  0  0  0  0
   -1.5100    4.4970    0.0000 C   0  0  0  0  0  0  0  0  0  0  0  0
   -0.6450    4.9990    0.0000 C   0  0  0  0  0  0  0  0  0  0  0  0
   -0.6470    5.9980    0.0000 C   0  0  0  0  0  0  0  0  0  0  0  0
   -1.5140    6.4970    0.0000 C   0  0  0  0  0  0  0  0  0  0  0  0
   -2.3790    5.9950    0.0000 C   0  0  0  0  0  0  0  0  0  0  0  0
   -3.2460    6.4930    0.0000 C   0  0  0  0  0  0  0  0  0  0  0  0
   -2.3770    4.9950    0.0000 C   0  0  0  0  0  0  0  0  0  0  0  0
    1.0970    0.0020    0.0000 C   0  0  0  0  0  0  0  0  0  0  0  0
    1.0990   -0.9980    0.0000 C   0  0  0  0  0  0  0  0  0  0  0  0
  1  2  1  0  0  0  0
  2  3  1  0  0  0  0
  3  4  1  0  0  0  0
  3  8  2  0  0  0  0
  4  5  2  0  0  0  0
  5  6  1  0  0  0  0
  6  7  2  0  0  0  0
  7  8  1  0  0  0  0
  8  9  1  0  0  0  0
  9 10  1  0  0  0  0
 10 11  2  0  0  0  0
 10 12  2  0  0  0  0
 10 13  1  0  0  0  0
 13 14  1  0  0  0  0
 13 30  2  0  0  0  0
 14 15  2  0  0  0  0
 15 16  1  0  0  0  0
 16 17  1  0  0  0  0
 16 29  2  0  0  0  0
 17 18  2  0  0  0  0
 18 19  1  0  0  0  0
 19 20  2  0  0  0  0
 19 21  1  0  0  0  0
 21 22  1  0  0  0  0
 22 23  1  0  0  0  0
 22 28  2  0  0  0  0
 23 24  2  0  0  0  0
 24 25  1  0  0  0  0
 25 26  2  0  0  0  0
 26 27  1  0  0  0  0
 26 28  1  0  0  0  0
 29 30  1  0  0  0  0
M  END
> <name>
decoy30

> <label>
0

$$$$
decoy31
  -OEChem-10082421392D

 30 32  0     0  0  0  0  0  0999 V2000
   -3.4770   -6.4930    0.0000 C   0  0  0  0  0  0  0  0  0  0  0  0
   -3.4750   -5.4930    0.0000 O   0  0  0  0  0  0  0  0  0  0  0  0
   -2.6080   -4.9950    0.0000 C   0  0  0  0  0  0  0  0  0  0  0  0
   -2.6060   -3.9950    0.0000 C   0  0  0  0  0  0  0  0  0  0  0  0
   -1.7390   -3.4960    0.0000 C   0  0  0  0  0  0  0  0  0  0  0  0
   -0.8740   -3.9980    0.0000 C   0  0  0  0  0  0  0  0  0  0  0  0
   -0.0070   -3.5000    0.0000 N   0  0  0  0  0  0  0  0  0  0  0  0
   -0.0050   -2.5000    0.0000 S   0  0  0  0  0  0  0  0  0  0  0  0
    0.9950   -2.5020    0.0000 O   0  0  0  0  0  0  0  0  0  0  0  0
   -1.0050   -2.4980    0.0000 O   0  0  0  0  0  0  0  0  0  0  0  0
   -0.0030   -1.5000    0.0000 C   0  0  0  0  0  0  0  0  0  0  0  0
    0.8640   -1.0020    0.0000 C   0  0  0  0  0  0  0  0  0  0  0  0
    0.8660   -0.0020    0.0000 C   0  0  0  0  0  0  0  0  0  0  0  0
    0.0010    0.5000    0.0000 C   0  0  0  0  0  0  0  0  0  0  0  0
    0.0030    1.5000    0.0000 C   0  0  0  0  0  0  0  0  0  0  0  0
    0.8700    1.9980    0.0000 C   0  0  0  0  0  0  0  0  0  0  0  0
    0.8720    2.9980    0.0000 C   0  0  0  0  0  0  0  0  0  0  0  0
    0.0070    3.5000    0.0000 O   0  0  0  0  0  0  0  0  0  0  0  0
    1.7390    3.4960    0.0000 N   0  0  0  0  0  0  0  0  0  0  0  0
    1.7410    4.4960    0.0000 C   0  0  0  0  0  0  0  0  0  0  0  0
    0.8760    4.9980    0.0000 C   0  0  0  0  0  0  0  0  0  0  0  0
    0.8780    5.9980    0.0000 C   0  0  0  0  0  0  0  0  0  0  0  0
    1.7450    6.4960    0.0000 C   0  0  0  0  0  0  0  0  0  0  0  0
    2.6100    5.9950    0.0000 C   0  0  0  0  0  0  0  0  0  0  0  0
    3.4770    6.4930    0.0000 C   0  0  0  0  0  0  0  0  0  0  0  0
    2.6080    4.9950    0.0000 C   0  0  0  0  0  0  0  0  0  0  0  0
   -0.8660    0.0020    0.0000 C   0  0  0  0  0  0  0  0  0  0  0  0
   -0.8680   -0.9980    0.0000 C   0  0  0  0  0  0  0  0  0  0  0  0
   -0.8760   -4.9980    0.0000 C   0  0  0  0  0  0  0  0  0  0  0  0
   -1.7430   -5.4960    0.0000 C   0  0  0  0  0  0  0  0  0  0  0  0
  1  2  1  0  0  0  0
  2  3  1  0  0  0  0
  3  4  1  0  0  0  0
  3 30  2  0  0  0  0
  4  5  2  0  0  0  0
  5  6  1  0  0  0  0
  6  7  1  0  0  0  0
  6 29  2  0  0  0  0
  7  8  1  0  0  0  0
  8  9  2  0  0  0  0
  8 10  2  0  0  0  0
  8 11  1  0  0  0  0
 11 12  1  0  0  0  0
 11 28  2  0  0  0  0
 12 13  2  0  0  0  0
 13 14  1  0  0  0  0
 14 15  1  0  0  0  0
 14 27  2  0  0  0  0
 15 16  2  0  0  0  0
 16 17  1  0  0  0  0
 17 18  2  0  0  0  0
 17 19  1  0  0  0  0
 19 20  1  0  0  0  0
 20 21  1  0  0  0  0
 20 26  2  0  0  0  0
 21 22  2  0  0  0  0
 22 23  1  0  0  0  0
 23 24  2  0  0  0  0
 24 25  1  0  0  0  0
 24 26  1  0  0  0  0
 27 28  1  0  0  0  0
 29 30  1  0  0  0  0
M  END
> <name>
decoy31

> <label>
0

$$$$
decoy32
  -OEChem-10082421392D

 30 32  0     0  0  0  0  0  0999 V2000
    6.0930   -2.5120    0.0000 C   0  0  0  0  0  0  0  0  0  0  0  0
    5.2260   -2.0130    0.0000 O   0  0  0  0  0  0  0  0  0  0  0  0
    4.3610   -2.5130    0.0000 C   0  0  0  0  0  0  0  0  0  0  0  0
    4.3620   -3.5130    0.0000 C   0  0  0  0  0  0  0  0  0  0  0  0
    3.4960   -4.0140    0.0000 C   0  0  0  0  0  0  0  0  0  0  0  0
    2.6300   -3.5140    0.0000 C   0  0  0  0  0  0  0  0  0  0  0  0
    2.6290   -2.5140    0.0000 C   0  0  0  0  0  0  0  0  0  0  0  0
    3.4940   -2.0140    0.0000 C   0  0  0  0  0  0  0  0  0  0  0  0
    3.4940   -1.0140    0.0000 N   0  0  0  0  0  0  0  0  0  0  0  0
    2.6270   -0.5140    0.0000 S   0  0  0  0  0  0  0  0  0  0  0  0
    3.1270    0.3520    0.0000 O   0  0  0  0  0  0  0  0  0  0  0  0
    2.1280   -1.3810    0.0000 O   0  0  0  0  0  0  0  0  0  0  0  0
    1.7610   -0.0150    0.0000 C   0  0  0  0  0  0  0  0  0  0  0  0
    1.7600    0.9850    0.0000 C   0  0  0  0  0  0  0  0  0  0  0  0
    0.8940    1.4840    0.0000 C   0  0  0  0  0  0  0  0  0  0  0  0
    0.0280    0.9840    0.0000 C   0  0  0  0  0  0  0  0  0  0  0  0
   -0.8380    1.4830    0.0000 C   0  0  0  0  0  0  0  0  0  0  0  0
   -1.7040    0.9820    0.0000 C   0  0  0  0  0  0  0  0  0  0  0  0
   -2.5700    1.4810    0.0000 C   0  0  0  0  0  0  0  0  0  0  0  0
   -2.5710    2.4810    0.0000 O   0  0  0  0  0  0  0  0  0  0  0  0
   -3.4360    0.9810    0.0000 N   0  0  0  0  0  0  0  0  0  0  0  0
   -4.3020    1.4800    0.0000 C   0  0  0  0  0  0  0  0  0  0  0  0
   -4.3030    2.4800    0.0000 C   0  0  0  0  0  0  0  0  0  0  0  0
   -5.1700    2.9790    0.0000 C   0  0  0  0  0  0  0  0  0  0  0  0
   -6.0350    2.4790    0.0000 C   0  0  0  0  0  0  0  0  0  0  0  0
   -6.9020    2.9780    0.0000 C   0  0  0  0  0  0  0  0  0  0  0  0
   -6.0340    1.4780    0.0000 C   0  0  0  0  0  0  0  0  0  0  0  0
   -5.1680    0.9790    0.0000 C   0  0  0  0  0  0  0  0  0  0  0  0
    0.0290   -0.0170    0.0000 C   0  0  0  0  0  0  0  0  0  0  0  0
    0.8950   -0.5160    0.0000 C   0  0  0  0  0  0  0  0  0  0  0  0
  1  2  1  0  0  0  0
  2  3  1  0  0  0  0
  3  4  1  0  0  0  0
  3  8  2  0  0  0  0
  4  5  2  0  0  0  0
  5  6  1  0  0  0  0
  6  7  2  0  0  0  0
  7  8  1  0  0  0  0
  8  9  1  0  0  0  0
  9 10  1  0  0  0  0
 10 11  2  0  0  0  0
 10 12  2  0  0  0  0
 10 13  1  0  0  0  0
 13 14  1  0  0  0  0
 13 30  2  0  0  0  0
 14 15  2  0  0  0  0
 15 16  1  0  0  0  0
 16 17  1  0  0  0  0
 16 29  2  0  0  0  0
 17 18  2  0  0  0  0
 18 19  1  0  0  0  0
 19 20  2  0  0  0  0
 19 21  1  0  0  0  0
 21 22  1  0  0  0  0
 22 23  1  0  0  0  0
 22 28  2  0  0  0  0
 23 24  2  0  0  0  0
 24 25  1  0  0  0  0
 25 26  1  0  0  0  0
 25 27  2  0  0  0  0
 27 28  1  0  0  0  0
 29 30  1  0  0  0  0
M  END
> <name>
decoy32

> <label>
0

$$$$
decoy33
  -OEChem-10082421392D

 30 32  0     0  0  0  0  0  0999 V2000
   -2.3800   -6.5280    0.0000 C   0  0  0  0  0  0  0  0  0  0  0  0
   -2.3780   -5.5280    0.0000 O   0  0  0  0  0  0  0  0  0  0  0  0
   -1.5110   -5.0300    0.0000 C   0  0  0  0  0  0  0  0  0  0  0  0
   -1.5090   -4.0300    0.0000 C   0  0  0  0  0  0  0  0  0  0  0  0
   -0.6420   -3.5320    0.0000 C   0  0  0  0  0  0  0  0  0  0  0  0
    0.2230   -4.0340    0.0000 C   0  0  0  0  0  0  0  0  0  0  0  0
    1.0900   -3.5360    0.0000 N   0  0  0  0  0  0  0  0  0  0  0  0
    1.0920   -2.5360    0.0000 S   0  0  0  0  0  0  0  0  0  0  0  0
    2.0920   -2.5380    0.0000 O   0  0  0  0  0  0  0  0  0  0  0  0
    0.0920   -2.5340    0.0000 O   0  0  0  0  0  0  0  0  0  0  0  0
    1.0940   -1.5360    0.0000 C   0  0  0  0  0  0  0  0  0  0  0  0
    1.9610   -1.0370    0.0000 C   0  0  0  0  0  0  0  0  0  0  0  0
    1.9630   -0.0370    0.0000 C   0  0  0  0  0  0  0  0  0  0  0  0
    1.0980    0.4640    0.0000 C   0  0  0  0  0  0  0  0  0  0  0  0
    1.1000    1.4640    0.0000 C   0  0  0  0  0  0  0  0  0  0  0  0
    0.2350    1.9660    0.0000 C   0  0  0  0  0  0  0  0  0  0  0  0
    0.2370    2.9660    0.0000 C   0  0  0  0  0  0  0  0  0  0  0  0
    1.1040    3.4640    0.0000 O   0  0  0  0  0  0  0  0  0  0  0  0
   -0.6280    3.4680    0.0000 N   0  0  0  0  0  0  0  0  0  0  0  0
   -0.6260    4.4680    0.0000 C   0  0  0  0  0  0  0  0  0  0  0  0
    0.2410    4.9660    0.0000 C   0  0  0  0  0  0  0  0  0  0  0  0
    0.2430    5.9660    0.0000 C   0  0  0  0  0  0  0  0  0  0  0  0
   -0.6220    6.4680    0.0000 C   0  0  0  0  0  0  0  0  0  0  0  0
   -0.6200    7.4680    0.0000 C   0  0  0  0  0  0  0  0  0  0  0  0
   -1.4890    5.9700    0.0000 C   0  0  0  0  0  0  0  0  0  0  0  0
   -1.4910    4.9700    0.0000 C   0  0  0  0  0  0  0  0  0  0  0  0
    0.2310   -0.0340    0.0000 C   0  0  0  0  0  0  0  0  0  0  0  0
    0.2290   -1.0340    0.0000 C   0  0  0  0  0  0  0  0  0  0  0  0
    0.2210   -5.0340    0.0000 C   0  0  0  0  0  0  0  0  0  0  0  0
   -0.6460   -5.5320    0.0000 C   0  0  0  0  0  0  0  0  0  0  0  0
  1  2  1  0  0  0  0
  2  3  1  0  0  0  0
  3  4  1  0  0  0  0
  3 30  2  0  0  0  0
  4  5  2  0  0  0  0
  5  6  1  0  0  0  0
  6  7  1  0  0  0  0
  6 29  2  0  0  0  0
  7  8  1  0  0  0  0
  8  9  2  0  0  0  0
  8 10  2  0  0  0  0
  8 11  1  0  0  0  0
 11 12  1  0  0  0  0
 11 28  2  0  0  0  0
 12 13  2  0  0  0  0
 13 14  1  0  0  0  0
 14 15  1  0  0  0  0
 14 27  2  0  0  0  0
 15 16  2  0  0  0  0
 16 17  1  0  0  0  0
 17 18  2  0  0  0  0
 17 19  1  0  0  0  0
 19 20  1  0  0  0  0
 20 21  1  0  0  0  0
 20 26  2  0  0  0  0
 21 22  2  0  0  0  0
 22 23  1  0  0  0  0
 23 24  1  0  0  0  0
 23 25  2  0  0  0  0
 25 26  1  0  0  0  0
 27 28  1  0  0  0  0
 29 30  1  0  0  0  0
M  END
> <name>
decoy33

> <label>
0

$$$$
decoy34
  -OEChem-10082421392D

 29 31  0     1  0  0  0  0  0999 V2000
   -1.2570   -1.2820    0.0000 O   0  0  0  0  0  0  0  0  0  0  0  0
   -0.3920   -1.7840    0.0000 C   0  0  0  0  0  0  0  0  0  0  0  0
   -0.3940   -2.7840    0.0000 C   0  0  0  0  0  0  0  0  0  0  0  0
   -1.2610   -3.2820    0.0000 C   0  0  0  0  0  0  0  0  0  0  0  0
   -1.2620   -4.2810    0.0000 C   0  0  0  0  0  0  0  0  0  0  0  0
   -2.1310   -4.7810    0.0000 C   0  0  0  0  0  0  0  0  0  0  0  0
   -2.9950   -4.2790    0.0000 Cl  0  0  0  0  0  0  0  0  0  0  0  0
   -2.1310   -5.7800    0.0000 C   0  0  0  0  0  0  0  0  0  0  0  0
   -1.2680   -6.2830    0.0000 C   0  0  0  0  0  0  0  0  0  0  0  0
   -0.3980   -5.7840    0.0000 C   0  0  0  0  0  0  0  0  0  0  0  0
   -0.3990   -4.7840    0.0000 C   0  0  0  0  0  0  0  0  0  0  0  0
    0.4690   -4.2860    0.0000 Cl  0  0  0  0  0  0  0  0  0  0  0  0
    0.4750   -1.2860    0.0000 N   0  0  0  0  0  0  0  0  0  0  0  0
    0.4760   -0.2870    0.0000 C   0  0  0  0  0  0  0  0  0  0  0  0
   -0.3870    0.2170    0.0000 C   0  0  0  0  0  0  0  0  0  0  0  0
   -0.3870    1.2160    0.0000 C   0  0  0  0  0  0  0  0  0  0  0  0
    0.4820    1.7150    0.0000 C   0  0  0  0  0  0  0  0  0  0  0  0
    0.4840    2.7150    0.0000 S   0  0  0  0  0  0  0  0  0  0  0  0
   -0.5160    2.7160    0.0000 O   0  0  0  0  0  0  0  0  0  0  0  0
    1.4840    2.7130    0.0000 O   0  0  0  0  0  0  0  0  0  0  0  0
    0.4850    3.7150    0.0000 N   0  0  0  0  0  0  0  0  0  0  0  0
    1.3520    4.2130    0.0000 C   0  0  0  0  0  0  0  0  0  0  0  0
    1.3540    5.2120    0.0000 C   0  0  1  0  0  0  0  0  0  0  0  0
    0.5470    5.8020    0.0000 C   0  0  0  0  0  0  0  0  0  0  0  0
    0.8570    6.7530    0.0000 C   0  0  0  0  0  0  0  0  0  0  0  0
    1.8580    6.7500    0.0000 C   0  0  0  0  0  0  0  0  0  0  0  0
    2.1640    5.7990    0.0000 O   0  0  0  0  0  0  0  0  0  0  0  0
    1.3460    1.2120    0.0000 C   0  0  0  0  0  0  0  0  0  0  0  0
    1.3460    0.2130    0.0000 C   0  0  0  0  0  0  0  0  0  0  0  0
  1  2  2  0  0  0  0
  2  3  1  0  0  0  0
  2 13  1  0  0  0  0
  3  4  2  0  0  0  0
  4  5  1  0  0  0  0
  5  6  1  0  0  0  0
  5 11  2  0  0  0  0
  6  7  1  0  0  0  0
  6  8  2  0  0  0  0
  8  9  1  0  0  0  0
  9 10  2  0  0  0  0
 10 11  1  0  0  0  0
 11 12  1  0  0  0  0
 13 14  1  0  0  0  0
 14 15  1  0  0  0  0
 14 29  2  0  0  0  0
 15 16  2  0  0  0  0
 16 17  1  0  0  0  0
 17 18  1  0  0  0  0
 17 28  2  0  0  0  0
 18 19  2  0  0  0  0
 18 20  2  0  0  0  0
 18 21  1  0  0  0  0
 21 22  1  0  0  0  0
 23 22  1  1  0  0  0
 23 24  1  0  0  0  0
 23 27  1  0  0  0  0
 24 25  1  0  0  0  0
 25 26  1  0  0  0  0
 26 27  1  0  0  0  0
 28 29  1  0  0  0  0
M  END
> <name>
decoy34

> <label>
0

$$$$
decoy35
  -OEChem-10082421392D

 31 33  0     0  0  0  0  0  0999 V2000
   -3.4960    4.9810    0.0000 C   0  0  0  0  0  0  0  0  0  0  0  0
   -2.6300    4.4820    0.0000 O   0  0  0  0  0  0  0  0  0  0  0  0
   -2.6290    3.4820    0.0000 C   0  0  0  0  0  0  0  0  0  0  0  0
   -1.7620    2.9820    0.0000 C   0  0  0  0  0  0  0  0  0  0  0  0
   -1.7620    1.9820    0.0000 C   0  0  0  0  0  0  0  0  0  0  0  0
   -0.8950    1.4830    0.0000 C   0  0  0  0  0  0  0  0  0  0  0  0
   -0.8940    0.4830    0.0000 C   0  0  0  0  0  0  0  0  0  0  0  0
   -0.0280   -0.0160    0.0000 C   0  0  0  0  0  0  0  0  0  0  0  0
    0.8380    0.4840    0.0000 O   0  0  0  0  0  0  0  0  0  0  0  0
   -0.0270   -1.0160    0.0000 N   0  0  0  0  0  0  0  0  0  0  0  0
    0.8390   -1.5150    0.0000 C   0  0  0  0  0  0  0  0  0  0  0  0
    0.8400   -2.5160    0.0000 C   0  0  0  0  0  0  0  0  0  0  0  0
    1.7060   -3.0150    0.0000 C   0  0  0  0  0  0  0  0  0  0  0  0
    2.5720   -2.5140    0.0000 C   0  0  0  0  0  0  0  0  0  0  0  0
    3.4380   -3.0130    0.0000 N   0  0  0  0  0  0  0  0  0  0  0  0
    3.4390   -4.0130    0.0000 C   0  0  0  0  0  0  0  0  0  0  0  0
    4.3060   -4.5120    0.0000 C   0  0  0  0  0  0  0  0  0  0  0  0
    5.1710   -4.0120    0.0000 N   0  3  0  0  0  0  0  0  0  0  0  0
    6.0380   -4.5110    0.0000 C   0  0  0  0  0  0  0  0  0  0  0  0
    5.1700   -3.0120    0.0000 C   0  0  0  0  0  0  0  0  0  0  0  0
    4.3040   -2.5130    0.0000 C   0  0  0  0  0  0  0  0  0  0  0  0
    2.5710   -1.5140    0.0000 C   0  0  0  0  0  0  0  0  0  0  0  0
    1.7050   -1.0150    0.0000 C   0  0  0  0  0  0  0  0  0  0  0  0
    1.7040   -0.0150    0.0000 C   0  0  0  0  0  0  0  0  0  0  0  0
   -2.6270    1.4820    0.0000 C   0  0  0  0  0  0  0  0  0  0  0  0
   -3.4940    1.9810    0.0000 C   0  0  0  0  0  0  0  0  0  0  0  0
   -3.4940    2.9810    0.0000 C   0  0  0  0  0  0  0  0  0  0  0  0
   -4.3610    3.4800    0.0000 O   0  0  0  0  0  0  0  0  0  0  0  0
   -5.2260    2.9800    0.0000 C   0  0  0  0  0  0  0  0  0  0  0  0
   -6.0930    3.4790    0.0000 F   0  0  0  0  0  0  0  0  0  0  0  0
   -5.2260    1.9800    0.0000 F   0  0  0  0  0  0  0  0  0  0  0  0
  1  2  1  0  0  0  0
  2  3  1  0  0  0  0
  3  4  2  0  0  0  0
  3 27  1  0  0  0  0
  4  5  1  0  0  0  0
  5  6  1  0  0  0  0
  5 25  2  0  0  0  0
  6  7  2  0  0  0  0
  7  8  1  0  0  0  0
  8  9  2  0  0  0  0
  8 10  1  0  0  0  0
 10 11  1  0  0  0  0
 11 12  1  0  0  0  0
 11 23  2  0  0  0  0
 12 13  2  0  0  0  0
 13 14  1  0  0  0  0
 14 15  1  0  0  0  0
 14 22  2  0  0  0  0
 15 16  1  0  0  0  0
 15 21  1  0  0  0  0
 16 17  1  0  0  0  0
 17 18  1  0  0  0  0
 18 19  1  0  0  0  0
 18 20  1  0  0  0  0
 20 21  1  0  0  0  0
 22 23  1  0  0  0  0
 23 24  1  0  0  0  0
 25 26  1  0  0  0  0
 26 27  2  0  0  0  0
 27 28  1  0  0  0  0
 28 29  1  0  0  0  0
 29 30  1  0  0  0  0
 29 31  1  0  0  0  0
M  CHG  1  18   1
M  END
> <name>
decoy35

> <label>
0

$$$$
decoy36
  -OEChem-10082421392D

 29 30  0     0  0  0  0  0  0999 V2000
   -6.0020   -0.6770    0.0000 C   0  0  0  0  0  0  0  0  0  0  0  0
   -5.1360   -0.1760    0.0000 C   0  0  0  0  0  0  0  0  0  0  0  0
   -5.1370    0.8240    0.0000 N   0  0  0  0  0  0  0  0  0  0  0  0
   -6.0030    1.3230    0.0000 C   0  0  0  0  0  0  0  0  0  0  0  0
   -6.8690    0.8220    0.0000 C   0  0  0  0  0  0  0  0  0  0  0  0
   -4.2710    1.3240    0.0000 C   0  0  0  0  0  0  0  0  0  0  0  0
   -4.2720    2.3240    0.0000 O   0  0  0  0  0  0  0  0  0  0  0  0
   -3.4050    0.8250    0.0000 C   0  0  0  0  0  0  0  0  0  0  0  0
   -2.5390    1.3260    0.0000 O   0  0  0  0  0  0  0  0  0  0  0  0
   -1.6730    0.8260    0.0000 C   0  0  0  0  0  0  0  0  0  0  0  0
   -0.8070    1.3270    0.0000 C   0  0  0  0  0  0  0  0  0  0  0  0
    0.0590    0.8280    0.0000 C   0  0  0  0  0  0  0  0  0  0  0  0
    0.0600   -0.1720    0.0000 C   0  0  0  0  0  0  0  0  0  0  0  0
    0.9260   -0.6720    0.0000 N   0  0  0  0  0  0  0  0  0  0  0  0
    1.7920   -0.1710    0.0000 C   0  0  0  0  0  0  0  0  0  0  0  0
    1.7910    0.8290    0.0000 O   0  0  0  0  0  0  0  0  0  0  0  0
    2.6580   -0.6700    0.0000 C   0  0  0  0  0  0  0  0  0  0  0  0
    3.5240   -0.1700    0.0000 C   0  0  0  0  0  0  0  0  0  0  0  0
    4.3900   -0.6690    0.0000 C   0  0  0  0  0  0  0  0  0  0  0  0
    5.2560   -0.1680    0.0000 C   0  0  0  0  0  0  0  0  0  0  0  0
    5.2550    0.8320    0.0000 F   0  0  0  0  0  0  0  0  0  0  0  0
    6.1220   -0.6680    0.0000 C   0  0  0  0  0  0  0  0  0  0  0  0
    6.1230   -1.6680    0.0000 C   0  0  0  0  0  0  0  0  0  0  0  0
    5.2570   -2.1680    0.0000 C   0  0  0  0  0  0  0  0  0  0  0  0
    4.3910   -1.6690    0.0000 C   0  0  0  0  0  0  0  0  0  0  0  0
    3.5250   -2.1700    0.0000 F   0  0  0  0  0  0  0  0  0  0  0  0
   -0.8060   -0.6730    0.0000 C   0  0  0  0  0  0  0  0  0  0  0  0
   -1.6720   -0.1740    0.0000 C   0  0  0  0  0  0  0  0  0  0  0  0
   -2.5380   -0.6740    0.0000 Cl  0  0  0  0  0  0  0  0  0  0  0  0
  1  2  1  0  0  0  0
  2  3  1  0  0  0  0
  3  4  1  0  0  0  0
  3  6  1  0  0  0  0
  4  5  1  0  0  0  0
  6  7  2  0  0  0  0
  6  8  1  0  0  0  0
  8  9  1  0  0  0  0
  9 10  1  0  0  0  0
 10 11  1  0  0  0  0
 10 28  2  0  0  0  0
 11 12  2  0  0  0  0
 12 13  1  0  0  0  0
 13 14  1  0  0  0  0
 13 27  2  0  0  0  0
 14 15  1  0  0  0  0
 15 16  2  0  0  0  0
 15 17  1  0  0  0  0
 17 18  2  0  0  0  0
 18 19  1  0  0  0  0
 19 20  1  0  0  0  0
 19 25  2  0  0  0  0
 20 21  1  0  0  0  0
 20 22  2  0  0  0  0
 22 23  1  0  0  0  0
 23 24  2  0  0  0  0
 24 25  1  0  0  0  0
 25 26  1  0  0  0  0
 27 28  1  0  0  0  0
 28 29  1  0  0  0  0
M  END
> <name>
decoy36

> <label>
0

$$$$
decoy37
  -OEChem-10082421392D

 31 33  0     0  0  0  0  0  0999 V2000
   -3.4400    4.9160    0.0000 C   0  0  0  0  0  0  0  0  0  0  0  0
   -2.5740    4.4170    0.0000 O   0  0  0  0  0  0  0  0  0  0  0  0
   -2.5730    3.4170    0.0000 C   0  0  0  0  0  0  0  0  0  0  0  0
   -1.7060    2.9180    0.0000 C   0  0  0  0  0  0  0  0  0  0  0  0
   -1.7060    1.9180    0.0000 C   0  0  0  0  0  0  0  0  0  0  0  0
   -0.8390    1.4190    0.0000 C   0  0  0  0  0  0  0  0  0  0  0  0
   -0.8380    0.4190    0.0000 C   0  0  0  0  0  0  0  0  0  0  0  0
    0.0280   -0.0810    0.0000 C   0  0  0  0  0  0  0  0  0  0  0  0
    0.8940    0.4200    0.0000 O   0  0  0  0  0  0  0  0  0  0  0  0
    0.0290   -1.0810    0.0000 N   0  0  0  0  0  0  0  0  0  0  0  0
    0.8950   -1.5800    0.0000 C   0  0  0  0  0  0  0  0  0  0  0  0
    0.8960   -2.5800    0.0000 C   0  0  0  0  0  0  0  0  0  0  0  0
    1.7620   -3.0790    0.0000 C   0  0  0  0  0  0  0  0  0  0  0  0
    2.6280   -2.5790    0.0000 C   0  0  0  0  0  0  0  0  0  0  0  0
    3.4940   -3.0780    0.0000 N   0  0  0  0  0  0  0  0  0  0  0  0
    3.4950   -4.0780    0.0000 C   0  0  0  0  0  0  0  0  0  0  0  0
    4.3620   -4.5770    0.0000 C   0  0  0  0  0  0  0  0  0  0  0  0
    5.2270   -4.0770    0.0000 N   0  3  0  0  0  0  0  0  0  0  0  0
    6.0940   -4.5760    0.0000 C   0  0  0  0  0  0  0  0  0  0  0  0
    5.2260   -3.0760    0.0000 C   0  0  0  0  0  0  0  0  0  0  0  0
    4.3600   -2.5770    0.0000 C   0  0  0  0  0  0  0  0  0  0  0  0
    2.6270   -1.5780    0.0000 C   0  0  0  0  0  0  0  0  0  0  0  0
    1.7610   -1.0790    0.0000 C   0  0  0  0  0  0  0  0  0  0  0  0
    1.7600   -0.0790    0.0000 C   0  0  0  0  0  0  0  0  0  0  0  0
   -2.5710    1.4170    0.0000 C   0  0  0  0  0  0  0  0  0  0  0  0
   -3.4380    1.9160    0.0000 C   0  0  0  0  0  0  0  0  0  0  0  0
   -3.4380    2.9170    0.0000 C   0  0  0  0  0  0  0  0  0  0  0  0
   -4.3050    3.4160    0.0000 O   0  0  0  0  0  0  0  0  0  0  0  0
   -5.1700    2.9150    0.0000 C   0  0  0  0  0  0  0  0  0  0  0  0
   -6.0370    3.4140    0.0000 C   0  0  0  0  0  0  0  0  0  0  0  0
   -6.9030    3.9140    0.0000 N   0  0  0  0  0  0  0  0  0  0  0  0
  1  2  1  0  0  0  0
  2  3  1  0  0  0  0
  3  4  2  0  0  0  0
  3 27  1  0  0  0  0
  4  5  1  0  0  0  0
  5  6  1  0  0  0  0
  5 25  2  0  0  0  0
  6  7  2  0  0  0  0
  7  8  1  0  0  0  0
  8  9  2  0  0  0  0
  8 10  1  0  0  0  0
 10 11  1  0  0  0  0
 11 12  1  0  0  0  0
 11 23  2  0  0  0  0
 12 13  2  0  0  0  0
 13 14  1  0  0  0  0
 14 15  1  0  0  0  0
 14 22  2  0  0  0  0
 15 16  1  0  0  0  0
 15 21  1  0  0  0  0
 16 17  1  0  0  0  0
 17 18  1  0  0  0  0
 18 19  1  0  0  0  0
 18 20  1  0  0  0  0
 20 21  1  0  0  0  0
 22 23  1  0  0  0  0
 23 24  1  0  0  0  0
 25 26  1  0  0  0  0
 26 27  2  0  0  0  0
 27 28  1  0  0  0  0
 28 29  1  0  0  0  0
 29 30  1  0  0  0  0
 30 31  3  0  0  0  0
M  CHG  1  18   1
M  END
> <name>
decoy37

> <label>
0

$$$$
decoy38
  -OEChem-10082421392D

 29 31  0     0  0  0  0  0  0999 V2000
   -5.3980   -3.4760    0.0000 C   0  0  0  0  0  0  0  0  0  0  0  0
   -4.5330   -2.9750    0.0000 C   0  0  0  0  0  0  0  0  0  0  0  0
   -4.5350   -1.9750    0.0000 O   0  0  0  0  0  0  0  0  0  0  0  0
   -3.6700   -1.4730    0.0000 C   0  0  0  0  0  0  0  0  0  0  0  0
   -2.8030   -1.9710    0.0000 C   0  0  0  0  0  0  0  0  0  0  0  0
   -1.9380   -1.4690    0.0000 C   0  0  0  0  0  0  0  0  0  0  0  0
   -1.9400   -0.4690    0.0000 C   0  0  0  0  0  0  0  0  0  0  0  0
   -1.0750    0.0320    0.0000 C   0  0  0  0  0  0  0  0  0  0  0  0
   -0.2080   -0.4660    0.0000 C   0  0  0  0  0  0  0  0  0  0  0  0
    0.6570    0.0360    0.0000 C   0  0  0  0  0  0  0  0  0  0  0  0
    0.6550    1.0360    0.0000 O   0  0  0  0  0  0  0  0  0  0  0  0
    1.5240   -0.4630    0.0000 N   0  0  0  0  0  0  0  0  0  0  0  0
    2.3890    0.0390    0.0000 C   0  0  0  0  0  0  0  0  0  0  0  0
    2.3870    1.0390    0.0000 C   0  0  0  0  0  0  0  0  0  0  0  0
    3.2520    1.5410    0.0000 C   0  0  0  0  0  0  0  0  0  0  0  0
    4.1190    1.0430    0.0000 C   0  0  0  0  0  0  0  0  0  0  0  0
    4.1210    0.0430    0.0000 C   0  0  0  0  0  0  0  0  0  0  0  0
    3.2560   -0.4590    0.0000 C   0  0  0  0  0  0  0  0  0  0  0  0
    3.2580   -1.4590    0.0000 Cl  0  0  0  0  0  0  0  0  0  0  0  0
    4.9840    1.5440    0.0000 N   0  0  0  0  0  0  0  0  0  0  0  0
    4.9820    2.5440    0.0000 C   0  0  0  0  0  0  0  0  0  0  0  0
    5.8470    3.0460    0.0000 O   0  0  0  0  0  0  0  0  0  0  0  0
    4.1150    3.0430    0.0000 C   0  0  0  0  0  0  0  0  0  0  0  0
    3.2500    2.5410    0.0000 O   0  0  0  0  0  0  0  0  0  0  0  0
   -2.8070    0.0290    0.0000 C   0  0  0  0  0  0  0  0  0  0  0  0
   -3.6720   -0.4730    0.0000 C   0  0  0  0  0  0  0  0  0  0  0  0
   -4.5390    0.0250    0.0000 O   0  0  0  0  0  0  0  0  0  0  0  0
   -5.4040   -0.4760    0.0000 C   0  0  0  0  0  0  0  0  0  0  0  0
   -6.2710    0.0220    0.0000 C   0  0  0  0  0  0  0  0  0  0  0  0
  1  2  1  0  0  0  0
  2  3  1  0  0  0  0
  3  4  1  0  0  0  0
  4  5  1  0  0  0  0
  4 26  2  0  0  0  0
  5  6  2  0  0  0  0
  6  7  1  0  0  0  0
  7  8  1  0  0  0  0
  7 25  2  0  0  0  0
  8  9  2  0  0  0  0
  9 10  1  0  0  0  0
 10 11  2  0  0  0  0
 10 12  1  0  0  0  0
 12 13  1  0  0  0  0
 13 14  1  0  0  0  0
 13 18  2  0  0  0  0
 14 15  2  0  0  0  0
 15 16  1  0  0  0  0
 15 24  1  0  0  0  0
 16 17  2  0  0  0  0
 16 20  1  0  0  0  0
 17 18  1  0  0  0  0
 18 19  1  0  0  0  0
 20 21  1  0  0  0  0
 21 22  2  0  0  0  0
 21 23  1  0  0  0  0
 23 24  1  0  0  0  0
 25 26  1  0  0  0  0
 26 27  1  0  0  0  0
 27 28  1  0  0  0  0
 28 29  1  0  0  0  0
M  END
> <name>
decoy38

> <label>
0

$$$$
decoy39
  -OEChem-10082421392D

 30 33  0     0  0  0  0  0  0999 V2000
    1.3290   -1.6660    0.0000 O   0  0  0  0  0  0  0  0  0  0  0  0
    1.3280   -0.6660    0.0000 C   0  0  0  0  0  0  0  0  0  0  0  0
    0.4620   -0.1660    0.0000 C   0  0  0  0  0  0  0  0  0  0  0  0
   -0.4040   -0.6670    0.0000 C   0  0  0  0  0  0  0  0  0  0  0  0
   -1.2700   -0.1680    0.0000 C   0  0  0  0  0  0  0  0  0  0  0  0
   -1.2710    0.8320    0.0000 C   0  0  0  0  0  0  0  0  0  0  0  0
   -2.1370    1.3320    0.0000 C   0  0  0  0  0  0  0  0  0  0  0  0
   -3.0030    0.8310    0.0000 C   0  0  0  0  0  0  0  0  0  0  0  0
   -3.8690    1.3300    0.0000 O   0  0  0  0  0  0  0  0  0  0  0  0
   -4.7350    0.8300    0.0000 C   0  0  0  0  0  0  0  0  0  0  0  0
   -5.6010    1.3290    0.0000 C   0  0  0  0  0  0  0  0  0  0  0  0
   -6.4670    0.8280    0.0000 C   0  0  0  0  0  0  0  0  0  0  0  0
   -7.3330    1.3280    0.0000 C   0  0  0  0  0  0  0  0  0  0  0  0
   -7.3340    2.3280    0.0000 C   0  0  0  0  0  0  0  0  0  0  0  0
   -6.4680    2.8280    0.0000 C   0  0  0  0  0  0  0  0  0  0  0  0
   -5.6020    2.3290    0.0000 N   0  0  0  0  0  0  0  0  0  0  0  0
   -3.0020   -0.1690    0.0000 C   0  0  0  0  0  0  0  0  0  0  0  0
   -2.1360   -0.6680    0.0000 C   0  0  0  0  0  0  0  0  0  0  0  0
    2.1940   -0.1650    0.0000 N   0  0  0  0  0  0  0  0  0  0  0  0
    3.0600   -0.6640    0.0000 C   0  0  0  0  0  0  0  0  0  0  0  0
    3.0610   -1.6640    0.0000 C   0  0  0  0  0  0  0  0  0  0  0  0
    3.9280   -2.1640    0.0000 C   0  0  0  0  0  0  0  0  0  0  0  0
    4.7930   -1.6630    0.0000 C   0  0  0  0  0  0  0  0  0  0  0  0
    4.7920   -0.6630    0.0000 C   0  0  0  0  0  0  0  0  0  0  0  0
    3.9260   -0.1640    0.0000 C   0  0  0  0  0  0  0  0  0  0  0  0
    5.6580   -0.1620    0.0000 N   0  0  0  0  0  0  0  0  0  0  0  0
    6.5240   -0.6610    0.0000 C   0  0  0  0  0  0  0  0  0  0  0  0
    7.3900   -0.1610    0.0000 O   0  0  0  0  0  0  0  0  0  0  0  0
    6.5250   -1.6620    0.0000 C   0  0  0  0  0  0  0  0  0  0  0  0
    5.6600   -2.1620    0.0000 O   0  0  0  0  0  0  0  0  0  0  0  0
  1  2  2  0  0  0  0
  2  3  1  0  0  0  0
  2 19  1  0  0  0  0
  3  4  2  0  0  0  0
  4  5  1  0  0  0  0
  5  6  1  0  0  0  0
  5 18  2  0  0  0  0
  6  7  2  0  0  0  0
  7  8  1  0  0  0  0
  8  9  1  0  0  0  0
  8 17  2  0  0  0  0
  9 10  1  0  0  0  0
 10 11  1  0  0  0  0
 11 12  1  0  0  0  0
 11 16  2  0  0  0  0
 12 13  2  0  0  0  0
 13 14  1  0  0  0  0
 14 15  2  0  0  0  0
 15 16  1  0  0  0  0
 17 18  1  0  0  0  0
 19 20  1  0  0  0  0
 20 21  2  0  0  0  0
 20 25  1  0  0  0  0
 21 22  1  0  0  0  0
 22 23  2  0  0  0  0
 23 24  1  0  0  0  0
 23 30  1  0  0  0  0
 24 25  2  0  0  0  0
 24 26  1  0  0  0  0
 26 27  1  0  0  0  0
 27 28  2  0  0  0  0
 27 29  1  0  0  0  0
 29 30  1  0  0  0  0
M  END
> <name>
decoy39

> <label>
0

$$$$
decoy40
  -OEChem-10082421392D

 29 31  0     1  0  0  0  0  0999 V2000
   -1.1970   -1.1100    0.0000 O   0  0  0  0  0  0  0  0  0  0  0  0
   -0.3320   -1.6120    0.0000 C   0  0  0  0  0  0  0  0  0  0  0  0
   -0.3340   -2.6110    0.0000 C   0  0  0  0  0  0  0  0  0  0  0  0
   -1.2010   -3.1100    0.0000 C   0  0  0  0  0  0  0  0  0  0  0  0
   -1.2020   -4.1090    0.0000 C   0  0  0  0  0  0  0  0  0  0  0  0
   -0.3390   -4.6120    0.0000 C   0  0  0  0  0  0  0  0  0  0  0  0
   -0.3380   -5.6110    0.0000 C   0  0  0  0  0  0  0  0  0  0  0  0
   -1.2080   -6.1110    0.0000 C   0  0  0  0  0  0  0  0  0  0  0  0
   -1.2090   -7.1100    0.0000 Cl  0  0  0  0  0  0  0  0  0  0  0  0
   -2.0710   -5.6080    0.0000 C   0  0  0  0  0  0  0  0  0  0  0  0
   -2.9390   -6.1060    0.0000 Cl  0  0  0  0  0  0  0  0  0  0  0  0
   -2.0710   -4.6080    0.0000 C   0  0  0  0  0  0  0  0  0  0  0  0
    0.5350   -1.1130    0.0000 N   0  0  0  0  0  0  0  0  0  0  0  0
    0.5370   -0.1140    0.0000 C   0  0  0  0  0  0  0  0  0  0  0  0
   -0.3270    0.3890    0.0000 C   0  0  0  0  0  0  0  0  0  0  0  0
   -0.3270    1.3880    0.0000 C   0  0  0  0  0  0  0  0  0  0  0  0
    0.5420    1.8880    0.0000 C   0  0  0  0  0  0  0  0  0  0  0  0
    0.5440    2.8870    0.0000 S   0  0  0  0  0  0  0  0  0  0  0  0
   -0.4560    2.8890    0.0000 O   0  0  0  0  0  0  0  0  0  0  0  0
    1.5440    2.8850    0.0000 O   0  0  0  0  0  0  0  0  0  0  0  0
    0.5450    3.8870    0.0000 N   0  0  0  0  0  0  0  0  0  0  0  0
    1.4120    4.3850    0.0000 C   0  0  0  0  0  0  0  0  0  0  0  0
    1.4140    5.3840    0.0000 C   0  0  1  0  0  0  0  0  0  0  0  0
    0.6070    5.9750    0.0000 C   0  0  0  0  0  0  0  0  0  0  0  0
    0.9170    6.9250    0.0000 C   0  0  0  0  0  0  0  0  0  0  0  0
    1.9180    6.9230    0.0000 C   0  0  0  0  0  0  0  0  0  0  0  0
    2.2240    5.9710    0.0000 O   0  0  0  0  0  0  0  0  0  0  0  0
    1.4060    1.3840    0.0000 C   0  0  0  0  0  0  0  0  0  0  0  0
    1.4060    0.3850    0.0000 C   0  0  0  0  0  0  0  0  0  0  0  0
  1  2  2  0  0  0  0
  2  3  1  0  0  0  0
  2 13  1  0  0  0  0
  3  4  2  0  0  0  0
  4  5  1  0  0  0  0
  5  6  2  0  0  0  0
  5 12  1  0  0  0  0
  6  7  1  0  0  0  0
  7  8  2  0  0  0  0
  8  9  1  0  0  0  0
  8 10  1  0  0  0  0
 10 11  1  0  0  0  0
 10 12  2  0  0  0  0
 13 14  1  0  0  0  0
 14 15  1  0  0  0  0
 14 29  2  0  0  0  0
 15 16  2  0  0  0  0
 16 17  1  0  0  0  0
 17 18  1  0  0  0  0
 17 28  2  0  0  0  0
 18 19  2  0  0  0  0
 18 20  2  0  0  0  0
 18 21  1  0  0  0  0
 21 22  1  0  0  0  0
 23 22  1  1  0  0  0
 23 24  1  0  0  0  0
 23 27  1  0  0  0  0
 24 25  1  0  0  0  0
 25 26  1  0  0  0  0
 26 27  1  0  0  0  0
 28 29  1  0  0  0  0
M  END
> <name>
decoy40

> <label>
0

$$$$
decoy41
  -OEChem-10082421392D

 29 31  0     1  0  0  0  0  0999 V2000
   -1.1970   -1.1790    0.0000 O   0  0  0  0  0  0  0  0  0  0  0  0
   -0.3320   -1.6800    0.0000 C   0  0  0  0  0  0  0  0  0  0  0  0
   -0.3340   -2.6800    0.0000 C   0  0  0  0  0  0  0  0  0  0  0  0
   -1.2010   -3.1790    0.0000 C   0  0  0  0  0  0  0  0  0  0  0  0
   -1.2020   -4.1780    0.0000 C   0  0  0  0  0  0  0  0  0  0  0  0
   -0.3390   -4.6810    0.0000 C   0  0  0  0  0  0  0  0  0  0  0  0
   -0.3380   -5.6800    0.0000 C   0  0  0  0  0  0  0  0  0  0  0  0
   -1.2080   -6.1800    0.0000 C   0  0  0  0  0  0  0  0  0  0  0  0
   -1.2090   -7.1790    0.0000 Cl  0  0  0  0  0  0  0  0  0  0  0  0
   -2.0710   -5.6760    0.0000 C   0  0  0  0  0  0  0  0  0  0  0  0
   -2.0710   -4.6770    0.0000 C   0  0  0  0  0  0  0  0  0  0  0  0
   -2.9350   -4.1750    0.0000 Cl  0  0  0  0  0  0  0  0  0  0  0  0
    0.5350   -1.1820    0.0000 N   0  0  0  0  0  0  0  0  0  0  0  0
    0.5360   -0.1830    0.0000 C   0  0  0  0  0  0  0  0  0  0  0  0
   -0.3270    0.3200    0.0000 C   0  0  0  0  0  0  0  0  0  0  0  0
   -0.3270    1.3190    0.0000 C   0  0  0  0  0  0  0  0  0  0  0  0
    0.5420    1.8190    0.0000 C   0  0  0  0  0  0  0  0  0  0  0  0
    0.5440    2.8180    0.0000 S   0  0  0  0  0  0  0  0  0  0  0  0
   -0.4560    2.8200    0.0000 O   0  0  0  0  0  0  0  0  0  0  0  0
    1.5440    2.8160    0.0000 O   0  0  0  0  0  0  0  0  0  0  0  0
    0.5450    3.8180    0.0000 N   0  0  0  0  0  0  0  0  0  0  0  0
    1.4120    4.3160    0.0000 C   0  0  0  0  0  0  0  0  0  0  0  0
    1.4140    5.3150    0.0000 C   0  0  1  0  0  0  0  0  0  0  0  0
    0.6070    5.9060    0.0000 C   0  0  0  0  0  0  0  0  0  0  0  0
    0.9170    6.8560    0.0000 C   0  0  0  0  0  0  0  0  0  0  0  0
    1.9180    6.8540    0.0000 C   0  0  0  0  0  0  0  0  0  0  0  0
    2.2240    5.9020    0.0000 O   0  0  0  0  0  0  0  0  0  0  0  0
    1.4060    1.3160    0.0000 C   0  0  0  0  0  0  0  0  0  0  0  0
    1.4060    0.3160    0.0000 C   0  0  0  0  0  0  0  0  0  0  0  0
  1  2  2  0  0  0  0
  2  3  1  0  0  0  0
  2 13  1  0  0  0  0
  3  4  2  0  0  0  0
  4  5  1  0  0  0  0
  5  6  1  0  0  0  0
  5 11  2  0  0  0  0
  6  7  2  0  0  0  0
  7  8  1  0  0  0  0
  8  9  1  0  0  0  0
  8 10  2  0  0  0  0
 10 11  1  0  0  0  0
 11 12  1  0  0  0  0
 13 14  1  0  0  0  0
 14 15  1  0  0  0  0
 14 29  2  0  0  0  0
 15 16  2  0  0  0  0
 16 17  1  0  0  0  0
 17 18  1  0  0  0  0
 17 28  2  0  0  0  0
 18 19  2  0  0  0  0
 18 20  2  0  0  0  0
 18 21  1  0  0  0  0
 21 22  1  0  0  0  0
 23 22  1  1  0  0  0
 23 24  1  0  0  0  0
 23 27  1  0  0  0  0
 24 25  1  0  0  0  0
 25 26  1  0  0  0  0
 26 27  1  0  0  0  0
 28 29  1  0  0  0  0
M  END
> <name>
decoy41

> <label>
0

$$$$
decoy42
  -OEChem-10082421392D

 29 31  0     0  0  0  0  0  0999 V2000
   -1.9190    1.2320    0.0000 O   0  0  0  0  0  0  0  0  0  0  0  0
   -1.9140    0.2320    0.0000 C   0  0  0  0  0  0  0  0  0  0  0  0
   -2.7780   -0.2720    0.0000 C   0  0  0  0  0  0  0  0  0  0  0  0
   -3.6470    0.2240    0.0000 C   0  0  0  0  0  0  0  0  0  0  0  0
   -4.5100   -0.2800    0.0000 C   0  0  0  0  0  0  0  0  0  0  0  0
   -4.5060   -1.2800    0.0000 C   0  0  0  0  0  0  0  0  0  0  0  0
   -5.3690   -1.7840    0.0000 C   0  0  0  0  0  0  0  0  0  0  0  0
   -6.2380   -1.2880    0.0000 C   0  0  0  0  0  0  0  0  0  0  0  0
   -7.1010   -1.7920    0.0000 Cl  0  0  0  0  0  0  0  0  0  0  0  0
   -6.2420   -0.2880    0.0000 C   0  0  0  0  0  0  0  0  0  0  0  0
   -5.3780    0.2160    0.0000 C   0  0  0  0  0  0  0  0  0  0  0  0
   -1.0460   -0.2650    0.0000 N   0  0  0  0  0  0  0  0  0  0  0  0
   -0.1830    0.2390    0.0000 C   0  0  0  0  0  0  0  0  0  0  0  0
   -0.1860    1.2390    0.0000 C   0  0  0  0  0  0  0  0  0  0  0  0
    0.6780    1.7440    0.0000 C   0  0  0  0  0  0  0  0  0  0  0  0
    1.5450    1.2470    0.0000 C   0  0  0  0  0  0  0  0  0  0  0  0
    1.5500    0.2470    0.0000 C   0  0  0  0  0  0  0  0  0  0  0  0
    2.4180   -0.2480    0.0000 S   0  0  0  0  0  0  0  0  0  0  0  0
    1.9210   -1.1170    0.0000 O   0  0  0  0  0  0  0  0  0  0  0  0
    2.9140    0.6200    0.0000 O   0  0  0  0  0  0  0  0  0  0  0  0
    3.2860   -0.7450    0.0000 N   0  0  0  0  0  0  0  0  0  0  0  0
    4.1500   -0.2400    0.0000 C   0  0  0  0  0  0  0  0  0  0  0  0
    4.9780   -0.8020    0.0000 C   0  0  0  0  0  0  0  0  0  0  0  0
    5.9320   -0.5010    0.0000 C   0  0  0  0  0  0  0  0  0  0  0  0
    6.2960    0.4310    0.0000 C   0  0  0  0  0  0  0  0  0  0  0  0
    5.7900    1.2940    0.0000 C   0  0  0  0  0  0  0  0  0  0  0  0
    4.8000    1.4400    0.0000 C   0  0  0  0  0  0  0  0  0  0  0  0
    4.0710    0.7550    0.0000 N   0  0  0  0  0  0  0  0  0  0  0  0
    0.6860   -0.2560    0.0000 C   0  0  0  0  0  0  0  0  0  0  0  0
  1  2  2  0  0  0  0
  2  3  1  0  0  0  0
  2 12  1  0  0  0  0
  3  4  2  0  0  0  0
  4  5  1  0  0  0  0
  5  6  1  0  0  0  0
  5 11  2  0  0  0  0
  6  7  2  0  0  0  0
  7  8  1  0  0  0  0
  8  9  1  0  0  0  0
  8 10  2  0  0  0  0
 10 11  1  0  0  0  0
 12 13  1  0  0  0  0
 13 14  1  0  0  0  0
 13 29  2  0  0  0  0
 14 15  2  0  0  0  0
 15 16  1  0  0  0  0
 16 17  2  0  0  0  0
 17 18  1  0  0  0  0
 17 29  1  0  0  0  0
 18 19  2  0  0  0  0
 18 20  2  0  0  0  0
 18 21  1  0  0  0  0
 21 22  2  0  0  0  0
 22 23  1  0  0  0  0
 22 28  1  0  0  0  0
 23 24  1  0  0  0  0
 24 25  1  0  0  0  0
 25 26  1  0  0  0  0
 26 27  1  0  0  0  0
 27 28  1  0  0  0  0
M  END
> <name>
decoy42

> <label>
0

$$$$
decoy43
  -OEChem-10082421392D

 31 34  0     0  0  0  0  0  0999 V2000
   -3.1840   -0.0190    0.0000 O   0  0  0  0  0  0  0  0  0  0  0  0
   -2.3180    0.4820    0.0000 C   0  0  0  0  0  0  0  0  0  0  0  0
   -2.3190    1.4820    0.0000 C   0  0  0  0  0  0  0  0  0  0  0  0
   -3.1860    1.9810    0.0000 C   0  0  0  0  0  0  0  0  0  0  0  0
   -3.1860    2.9820    0.0000 C   0  0  0  0  0  0  0  0  0  0  0  0
   -2.3210    3.4820    0.0000 C   0  0  0  0  0  0  0  0  0  0  0  0
   -2.3220    4.4820    0.0000 C   0  0  0  0  0  0  0  0  0  0  0  0
   -3.1880    4.9810    0.0000 C   0  0  0  0  0  0  0  0  0  0  0  0
   -3.1890    5.9810    0.0000 F   0  0  0  0  0  0  0  0  0  0  0  0
   -4.0530    4.4810    0.0000 C   0  0  0  0  0  0  0  0  0  0  0  0
   -4.0530    3.4810    0.0000 C   0  0  0  0  0  0  0  0  0  0  0  0
   -1.4520   -0.0170    0.0000 N   0  0  0  0  0  0  0  0  0  0  0  0
   -1.4510   -1.0170    0.0000 C   0  0  0  0  0  0  0  0  0  0  0  0
   -2.3170   -1.5180    0.0000 C   0  0  0  0  0  0  0  0  0  0  0  0
   -2.3160   -2.5180    0.0000 C   0  0  0  0  0  0  0  0  0  0  0  0
   -1.4500   -3.0170    0.0000 C   0  0  0  0  0  0  0  0  0  0  0  0
   -0.5840   -2.5170    0.0000 C   0  0  0  0  0  0  0  0  0  0  0  0
   -0.5850   -1.5160    0.0000 C   0  0  0  0  0  0  0  0  0  0  0  0
    0.2810   -1.0160    0.0000 C   0  0  0  0  0  0  0  0  0  0  0  0
    0.2800   -0.0160    0.0000 O   0  0  0  0  0  0  0  0  0  0  0  0
    1.1470   -1.5150    0.0000 N   0  0  0  0  0  0  0  0  0  0  0  0
    2.0130   -1.0140    0.0000 C   0  0  0  0  0  0  0  0  0  0  0  0
    2.8790   -1.5140    0.0000 C   0  0  0  0  0  0  0  0  0  0  0  0
    2.8800   -2.5140    0.0000 C   0  0  0  0  0  0  0  0  0  0  0  0
    3.7460   -3.0130    0.0000 C   0  0  0  0  0  0  0  0  0  0  0  0
    4.6120   -2.5120    0.0000 C   0  0  0  0  0  0  0  0  0  0  0  0
    4.6110   -1.5120    0.0000 C   0  0  0  0  0  0  0  0  0  0  0  0
    3.7450   -1.0130    0.0000 C   0  0  0  0  0  0  0  0  0  0  0  0
    5.5620   -1.2020    0.0000 O   0  0  0  0  0  0  0  0  0  0  0  0
    6.1500   -2.0110    0.0000 C   0  0  0  0  0  0  0  0  0  0  0  0
    5.5640   -2.8210    0.0000 O   0  0  0  0  0  0  0  0  0  0  0  0
  1  2  2  0  0  0  0
  2  3  1  0  0  0  0
  2 12  1  0  0  0  0
  3  4  2  0  0  0  0
  4  5  1  0  0  0  0
  5  6  1  0  0  0  0
  5 11  2  0  0  0  0
  6  7  2  0  0  0  0
  7  8  1  0  0  0  0
  8  9  1  0  0  0  0
  8 10  2  0  0  0  0
 10 11  1  0  0  0  0
 12 13  1  0  0  0  0
 13 14  1  0  0  0  0
 13 18  2  0  0  0  0
 14 15  2  0  0  0  0
 15 16  1  0  0  0  0
 16 17  2  0  0  0  0
 17 18  1  0  0  0  0
 18 19  1  0  0  0  0
 19 20  2  0  0  0  0
 19 21  1  0  0  0  0
 21 22  1  0  0  0  0
 22 23  1  0  0  0  0
 23 24  2  0  0  0  0
 23 28  1  0  0  0  0
 24 25  1  0  0  0  0
 25 26  2  0  0  0  0
 26 27  1  0  0  0  0
 26 31  1  0  0  0  0
 27 28  2  0  0  0  0
 27 29  1  0  0  0  0
 29 30  1  0  0  0  0
 30 31  1  0  0  0  0
M  END
> <name>
decoy43

> <label>
0

$$$$
decoy44
  -OEChem-10082421392D

 30 32  0     0  0  0  0  0  0999 V2000
   -3.4770    6.4600    0.0000 C   0  0  0  0  0  0  0  0  0  0  0  0
   -3.4750    5.4600    0.0000 O   0  0  0  0  0  0  0  0  0  0  0  0
   -2.6080    4.9610    0.0000 C   0  0  0  0  0  0  0  0  0  0  0  0
   -2.6060    3.9610    0.0000 C   0  0  0  0  0  0  0  0  0  0  0  0
   -1.7390    3.4630    0.0000 C   0  0  0  0  0  0  0  0  0  0  0  0
   -0.8740    3.9650    0.0000 C   0  0  0  0  0  0  0  0  0  0  0  0
   -0.0070    3.4670    0.0000 N   0  0  0  0  0  0  0  0  0  0  0  0
   -0.0050    2.4670    0.0000 S   0  0  0  0  0  0  0  0  0  0  0  0
    0.9950    2.4690    0.0000 O   0  0  0  0  0  0  0  0  0  0  0  0
   -1.0050    2.4650    0.0000 O   0  0  0  0  0  0  0  0  0  0  0  0
   -0.0030    1.4670    0.0000 C   0  0  0  0  0  0  0  0  0  0  0  0
    0.8640    0.9680    0.0000 C   0  0  0  0  0  0  0  0  0  0  0  0
    0.8660   -0.0320    0.0000 C   0  0  0  0  0  0  0  0  0  0  0  0
    0.0010   -0.5330    0.0000 C   0  0  0  0  0  0  0  0  0  0  0  0
    0.0030   -1.5330    0.0000 N   0  0  0  0  0  0  0  0  0  0  0  0
    0.8700   -2.0310    0.0000 C   0  0  0  0  0  0  0  0  0  0  0  0
    1.7350   -1.5300    0.0000 O   0  0  0  0  0  0  0  0  0  0  0  0
    0.8720   -3.0320    0.0000 C   0  0  0  0  0  0  0  0  0  0  0  0
    1.7390   -3.5300    0.0000 C   0  0  0  0  0  0  0  0  0  0  0  0
    1.7410   -4.5300    0.0000 C   0  0  0  0  0  0  0  0  0  0  0  0
    2.6080   -5.0280    0.0000 C   0  0  0  0  0  0  0  0  0  0  0  0
    2.6100   -6.0280    0.0000 C   0  0  0  0  0  0  0  0  0  0  0  0
    1.7450   -6.5300    0.0000 C   0  0  0  0  0  0  0  0  0  0  0  0
    1.7470   -7.5300    0.0000 F   0  0  0  0  0  0  0  0  0  0  0  0
    0.8780   -6.0320    0.0000 C   0  0  0  0  0  0  0  0  0  0  0  0
    0.8760   -5.0320    0.0000 C   0  0  0  0  0  0  0  0  0  0  0  0
   -0.8660   -0.0350    0.0000 C   0  0  0  0  0  0  0  0  0  0  0  0
   -0.8680    0.9650    0.0000 C   0  0  0  0  0  0  0  0  0  0  0  0
   -0.8760    4.9650    0.0000 C   0  0  0  0  0  0  0  0  0  0  0  0
   -1.7430    5.4630    0.0000 C   0  0  0  0  0  0  0  0  0  0  0  0
  1  2  1  0  0  0  0
  2  3  1  0  0  0  0
  3  4  1  0  0  0  0
  3 30  2  0  0  0  0
  4  5  2  0  0  0  0
  5  6  1  0  0  0  0
  6  7  1  0  0  0  0
  6 29  2  0  0  0  0
  7  8  1  0  0  0  0
  8  9  2  0  0  0  0
  8 10  2  0  0  0  0
  8 11  1  0  0  0  0
 11 12  1  0  0  0  0
 11 28  2  0  0  0  0
 12 13  2  0  0  0  0
 13 14  1  0  0  0  0
 14 15  1  0  0  0  0
 14 27  2  0  0  0  0
 15 16  1  0  0  0  0
 16 17  2  0  0  0  0
 16 18  1  0  0  0  0
 18 19  2  0  0  0  0
 19 20  1  0  0  0  0
 20 21  1  0  0  0  0
 20 26  2  0  0  0  0
 21 22  2  0  0  0  0
 22 23  1  0  0  0  0
 23 24  1  0  0  0  0
 23 25  2  0  0  0  0
 25 26  1  0  0  0  0
 27 28  1  0  0  0  0
 29 30  1  0  0  0  0
M  END
> <name>
decoy44

> <label>
0

$$$$
decoy45
  -OEChem-10082421392D

 31 33  0     0  0  0  0  0  0999 V2000
    3.4660    2.1260    0.0000 C   0  0  0  0  0  0  0  0  0  0  0  0
    2.6000    2.6270    0.0000 O   0  0  0  0  0  0  0  0  0  0  0  0
    1.7340    2.1280    0.0000 C   0  0  0  0  0  0  0  0  0  0  0  0
    1.7330    1.1280    0.0000 C   0  0  0  0  0  0  0  0  0  0  0  0
    0.8660    0.6280    0.0000 C   0  0  0  0  0  0  0  0  0  0  0  0
    0.0010    1.1290    0.0000 C   0  0  0  0  0  0  0  0  0  0  0  0
   -0.8660    0.6300    0.0000 C   0  0  0  0  0  0  0  0  0  0  0  0
   -0.8660   -0.3700    0.0000 C   0  0  0  0  0  0  0  0  0  0  0  0
   -1.7330   -0.8700    0.0000 N   0  0  0  0  0  0  0  0  0  0  0  0
   -2.5980   -0.3690    0.0000 C   0  0  0  0  0  0  0  0  0  0  0  0
   -2.5980    0.6310    0.0000 O   0  0  0  0  0  0  0  0  0  0  0  0
   -3.4650   -0.8680    0.0000 C   0  0  0  0  0  0  0  0  0  0  0  0
   -4.3300   -0.3680    0.0000 C   0  0  0  0  0  0  0  0  0  0  0  0
   -5.1970   -0.8670    0.0000 C   0  0  0  0  0  0  0  0  0  0  0  0
   -5.1980   -1.8670    0.0000 C   0  0  0  0  0  0  0  0  0  0  0  0
   -4.3320   -2.3670    0.0000 C   0  0  0  0  0  0  0  0  0  0  0  0
   -3.4660   -1.8680    0.0000 C   0  0  0  0  0  0  0  0  0  0  0  0
   -0.0010   -0.8710    0.0000 C   0  0  0  0  0  0  0  0  0  0  0  0
   -0.0020   -1.8710    0.0000 O   0  0  0  0  0  0  0  0  0  0  0  0
    0.8660   -0.3720    0.0000 N   0  0  0  0  0  0  0  0  0  0  0  0
    1.7310   -0.8720    0.0000 C   0  0  0  0  0  0  0  0  0  0  0  0
    1.7300   -1.8720    0.0000 C   0  0  0  0  0  0  0  0  0  0  0  0
    2.5960   -2.3730    0.0000 C   0  0  0  0  0  0  0  0  0  0  0  0
    3.4620   -1.8740    0.0000 C   0  0  0  0  0  0  0  0  0  0  0  0
    4.3280   -2.3740    0.0000 F   0  0  0  0  0  0  0  0  0  0  0  0
    3.4630   -0.8740    0.0000 C   0  0  0  0  0  0  0  0  0  0  0  0
    2.5980   -0.3730    0.0000 C   0  0  0  0  0  0  0  0  0  0  0  0
    0.0020    2.1290    0.0000 C   0  0  0  0  0  0  0  0  0  0  0  0
    0.8680    2.6280    0.0000 C   0  0  0  0  0  0  0  0  0  0  0  0
    0.8690    3.6280    0.0000 O   0  0  0  0  0  0  0  0  0  0  0  0
    1.7350    4.1280    0.0000 C   0  0  0  0  0  0  0  0  0  0  0  0
  1  2  1  0  0  0  0
  2  3  1  0  0  0  0
  3  4  1  0  0  0  0
  3 29  2  0  0  0  0
  4  5  2  0  0  0  0
  5  6  1  0  0  0  0
  6  7  1  0  0  0  0
  6 28  2  0  0  0  0
  7  8  2  0  0  0  0
  8  9  1  0  0  0  0
  8 18  1  0  0  0  0
  9 10  1  0  0  0  0
 10 11  2  0  0  0  0
 10 12  1  0  0  0  0
 12 13  1  0  0  0  0
 12 17  2  0  0  0  0
 13 14  2  0  0  0  0
 14 15  1  0  0  0  0
 15 16  2  0  0  0  0
 16 17  1  0  0  0  0
 18 19  2  0  0  0  0
 18 20  1  0  0  0  0
 20 21  1  0  0  0  0
 21 22  1  0  0  0  0
 21 27  2  0  0  0  0
 22 23  2  0  0  0  0
 23 24  1  0  0  0  0
 24 25  1  0  0  0  0
 24 26  2  0  0  0  0
 26 27  1  0  0  0  0
 28 29  1  0  0  0  0
 29 30  1  0  0  0  0
 30 31  1  0  0  0  0
M  END
> <name>
decoy45

> <label>
0

$$$$
decoy46
  -OEChem-10082421392D

 30 32  0     0  0  0  0  0  0999 V2000
    6.0930   -2.5120    0.0000 C   0  0  0  0  0  0  0  0  0  0  0  0
    5.2260   -2.0130    0.0000 O   0  0  0  0  0  0  0  0  0  0  0  0
    4.3610   -2.5130    0.0000 C   0  0  0  0  0  0  0  0  0  0  0  0
    4.3620   -3.5130    0.0000 C   0  0  0  0  0  0  0  0  0  0  0  0
    3.4960   -4.0140    0.0000 C   0  0  0  0  0  0  0  0  0  0  0  0
    2.6300   -3.5140    0.0000 C   0  0  0  0  0  0  0  0  0  0  0  0
    2.6290   -2.5140    0.0000 C   0  0  0  0  0  0  0  0  0  0  0  0
    3.4940   -2.0140    0.0000 C   0  0  0  0  0  0  0  0  0  0  0  0
    3.4940   -1.0140    0.0000 N   0  0  0  0  0  0  0  0  0  0  0  0
    2.6270   -0.5140    0.0000 S   0  0  0  0  0  0  0  0  0  0  0  0
    3.1270    0.3520    0.0000 O   0  0  0  0  0  0  0  0  0  0  0  0
    2.1280   -1.3810    0.0000 O   0  0  0  0  0  0  0  0  0  0  0  0
    1.7610   -0.0150    0.0000 C   0  0  0  0  0  0  0  0  0  0  0  0
    1.7600    0.9850    0.0000 C   0  0  0  0  0  0  0  0  0  0  0  0
    0.8940    1.4840    0.0000 C   0  0  0  0  0  0  0  0  0  0  0  0
    0.0280    0.9840    0.0000 C   0  0  0  0  0  0  0  0  0  0  0  0
   -0.8380    1.4830    0.0000 C   0  0  0  0  0  0  0  0  0  0  0  0
   -1.7040    0.9820    0.0000 C   0  0  0  0  0  0  0  0  0  0  0  0
   -2.5700    1.4810    0.0000 C   0  0  0  0  0  0  0  0  0  0  0  0
   -2.5710    2.4810    0.0000 O   0  0  0  0  0  0  0  0  0  0  0  0
   -3.4360    0.9810    0.0000 N   0  0  0  0  0  0  0  0  0  0  0  0
   -4.3020    1.4800    0.0000 C   0  0  0  0  0  0  0  0  0  0  0  0
   -4.3030    2.4800    0.0000 C   0  0  0  0  0  0  0  0  0  0  0  0
   -5.1700    2.9790    0.0000 C   0  0  0  0  0  0  0  0  0  0  0  0
   -6.0350    2.4790    0.0000 C   0  0  0  0  0  0  0  0  0  0  0  0
   -6.9020    2.9780    0.0000 F   0  0  0  0  0  0  0  0  0  0  0  0
   -6.0340    1.4780    0.0000 C   0  0  0  0  0  0  0  0  0  0  0  0
   -5.1680    0.9790    0.0000 C   0  0  0  0  0  0  0  0  0  0  0  0
    0.0290   -0.0170    0.0000 C   0  0  0  0  0  0  0  0  0  0  0  0
    0.8950   -0.5160    0.0000 C   0  0  0  0  0  0  0  0  0  0  0  0
  1  2  1  0  0  0  0
  2  3  1  0  0  0  0
  3  4  1  0  0  0  0
  3  8  2  0  0  0  0
  4  5  2  0  0  0  0
  5  6  1  0  0  0  0
  6  7  2  0  0  0  0
  7  8  1  0  0  0  0
  8  9  1  0  0  0  0
  9 10  1  0  0  0  0
 10 11  2  0  0  0  0
 10 12  2  0  0  0  0
 10 13  1  0  0  0  0
 13 14  1  0  0  0  0
 13 30  2  0  0  0  0
 14 15  2  0  0  0  0
 15 16  1  0  0  0  0
 16 17  1  0  0  0  0
 16 29  2  0  0  0  0
 17 18  2  0  0  0  0
 18 19  1  0  0  0  0
 19 20  2  0  0  0  0
 19 21  1  0  0  0  0
 21 22  1  0  0  0  0
 22 23  1  0  0  0  0
 22 28  2  0  0  0  0
 23 24  2  0  0  0  0
 24 25  1  0  0  0  0
 25 26  1  0  0  0  0
 25 27  2  0  0  0  0
 27 28  1  0  0  0  0
 29 30  1  0  0  0  0
M  END
> <name>
decoy46

> <label>
0

$$$$
decoy47
  -OEChem-10082421392D

 30 32  0     0  0  0  0  0  0999 V2000
   -2.3800   -6.5280    0.0000 C   0  0  0  0  0  0  0  0  0  0  0  0
   -2.3780   -5.5280    0.0000 O   0  0  0  0  0  0  0  0  0  0  0  0
   -1.5110   -5.0300    0.0000 C   0  0  0  0  0  0  0  0  0  0  0  0
   -1.5090   -4.0300    0.0000 C   0  0  0  0  0  0  0  0  0  0  0  0
   -0.6420   -3.5320    0.0000 C   0  0  0  0  0  0  0  0  0  0  0  0
    0.2230   -4.0340    0.0000 C   0  0  0  0  0  0  0  0  0  0  0  0
    1.0900   -3.5360    0.0000 N   0  0  0  0  0  0  0  0  0  0  0  0
    1.0920   -2.5360    0.0000 S   0  0  0  0  0  0  0  0  0  0  0  0
    2.0920   -2.5380    0.0000 O   0  0  0  0  0  0  0  0  0  0  0  0
    0.0920   -2.5340    0.0000 O   0  0  0  0  0  0  0  0  0  0  0  0
    1.0940   -1.5360    0.0000 C   0  0  0  0  0  0  0  0  0  0  0  0
    1.9610   -1.0370    0.0000 C   0  0  0  0  0  0  0  0  0  0  0  0
    1.9630   -0.0370    0.0000 C   0  0  0  0  0  0  0  0  0  0  0  0
    1.0980    0.4640    0.0000 C   0  0  0  0  0  0  0  0  0  0  0  0
    1.1000    1.4640    0.0000 C   0  0  0  0  0  0  0  0  0  0  0  0
    0.2350    1.9660    0.0000 C   0  0  0  0  0  0  0  0  0  0  0  0
    0.2370    2.9660    0.0000 C   0  0  0  0  0  0  0  0  0  0  0  0
    1.1040    3.4640    0.0000 O   0  0  0  0  0  0  0  0  0  0  0  0
   -0.6280    3.4680    0.0000 N   0  0  0  0  0  0  0  0  0  0  0  0
   -0.6260    4.4680    0.0000 C   0  0  0  0  0  0  0  0  0  0  0  0
    0.2410    4.9660    0.0000 C   0  0  0  0  0  0  0  0  0  0  0  0
    0.2430    5.9660    0.0000 C   0  0  0  0  0  0  0  0  0  0  0  0
   -0.6220    6.4680    0.0000 C   0  0  0  0  0  0  0  0  0  0  0  0
   -0.6200    7.4680    0.0000 F   0  0  0  0  0  0  0  0  0  0  0  0
   -1.4890    5.9700    0.0000 C   0  0  0  0  0  0  0  0  0  0  0  0
   -1.4910    4.9700    0.0000 C   0  0  0  0  0  0  0  0  0  0  0  0
    0.2310   -0.0340    0.0000 C   0  0  0  0  0  0  0  0  0  0  0  0
    0.2290   -1.0340    0.0000 C   0  0  0  0  0  0  0  0  0  0  0  0
    0.2210   -5.0340    0.0000 C   0  0  0  0  0  0  0  0  0  0  0  0
   -0.6460   -5.5320    0.0000 C   0  0  0  0  0  0  0  0  0  0  0  0
  1  2  1  0  0  0  0
  2  3  1  0  0  0  0
  3  4  1  0  0  0  0
  3 30  2  0  0  0  0
  4  5  2  0  0  0  0
  5  6  1  0  0  0  0
  6  7  1  0  0  0  0
  6 29  2  0  0  0  0
  7  8  1  0  0  0  0
  8  9  2  0  0  0  0
  8 10  2  0  0  0  0
  8 11  1  0  0  0  0
 11 12  1  0  0  0  0
 11 28  2  0  0  0  0
 12 13  2  0  0  0  0
 13 14  1  0  0  0  0
 14 15  1  0  0  0  0
 14 27  2  0  0  0  0
 15 16  2  0  0  0  0
 16 17  1  0  0  0  0
 17 18  2  0  0  0  0
 17 19  1  0  0  0  0
 19 20  1  0  0  0  0
 20 21  1  0  0  0  0
 20 26  2  0  0  0  0
 21 22  2  0  0  0  0
 22 23  1  0  0  0  0
 23 24  1  0  0  0  0
 23 25  2  0  0  0  0
 25 26  1  0  0  0  0
 27 28  1  0  0  0  0
 29 30  1  0  0  0  0
M  END
> <name>
decoy47

> <label>
0

$$$$
decoy48
  -OEChem-10082421392D

 30 32  0     0  0  0  0  0  0999 V2000
   -1.3580    1.6490    0.0000 O   0  0  0  0  0  0  0  0  0  0  0  0
   -1.3570    0.6490    0.0000 C   0  0  0  0  0  0  0  0  0  0  0  0
   -2.2230    0.1480    0.0000 C   0  0  0  0  0  0  0  0  0  0  0  0
   -3.0890    0.6480    0.0000 C   0  0  0  0  0  0  0  0  0  0  0  0
   -3.9550    0.1470    0.0000 C   0  0  0  0  0  0  0  0  0  0  0  0
   -4.8210    0.6460    0.0000 C   0  0  0  0  0  0  0  0  0  0  0  0
   -5.6870    0.1460    0.0000 C   0  0  0  0  0  0  0  0  0  0  0  0
   -5.6860   -0.8540    0.0000 C   0  0  0  0  0  0  0  0  0  0  0  0
   -6.5520   -1.3550    0.0000 N   0  3  0  0  0  0  0  0  0  0  0  0
   -7.4180   -0.8560    0.0000 O   0  0  0  0  0  0  0  0  0  0  0  0
   -6.5510   -2.3550    0.0000 O   0  5  0  0  0  0  0  0  0  0  0  0
   -4.8200   -1.3540    0.0000 C   0  0  0  0  0  0  0  0  0  0  0  0
   -3.9540   -0.8530    0.0000 C   0  0  0  0  0  0  0  0  0  0  0  0
   -0.4910    0.1500    0.0000 N   0  0  0  0  0  0  0  0  0  0  0  0
    0.3750    0.6500    0.0000 C   0  0  0  0  0  0  0  0  0  0  0  0
    0.3740    1.6500    0.0000 C   0  0  0  0  0  0  0  0  0  0  0  0
    1.2400    2.1510    0.0000 C   0  0  0  0  0  0  0  0  0  0  0  0
    2.1060    1.6520    0.0000 C   0  0  0  0  0  0  0  0  0  0  0  0
    2.1070    0.6520    0.0000 C   0  0  0  0  0  0  0  0  0  0  0  0
    2.9730    0.1520    0.0000 C   0  0  0  0  0  0  0  0  0  0  0  0
    2.9740   -0.8480    0.0000 O   0  0  0  0  0  0  0  0  0  0  0  0
    3.8390    0.6530    0.0000 N   0  0  0  0  0  0  0  0  0  0  0  0
    4.7050    0.1540    0.0000 C   0  0  0  0  0  0  0  0  0  0  0  0
    4.7060   -0.8460    0.0000 C   0  0  0  0  0  0  0  0  0  0  0  0
    5.5720   -1.3460    0.0000 C   0  0  0  0  0  0  0  0  0  0  0  0
    6.4380   -0.8450    0.0000 C   0  0  0  0  0  0  0  0  0  0  0  0
    7.3040   -1.3440    0.0000 F   0  0  0  0  0  0  0  0  0  0  0  0
    6.4370    0.1550    0.0000 C   0  0  0  0  0  0  0  0  0  0  0  0
    5.5710    0.6540    0.0000 C   0  0  0  0  0  0  0  0  0  0  0  0
    1.2410    0.1510    0.0000 C   0  0  0  0  0  0  0  0  0  0  0  0
  1  2  2  0  0  0  0
  2  3  1  0  0  0  0
  2 14  1  0  0  0  0
  3  4  2  0  0  0  0
  4  5  1  0  0  0  0
  5  6  1  0  0  0  0
  5 13  2  0  0  0  0
  6  7  2  0  0  0  0
  7  8  1  0  0  0  0
  8  9  1  0  0  0  0
  8 12  2  0  0  0  0
  9 10  2  0  0  0  0
  9 11  1  0  0  0  0
 12 13  1  0  0  0  0
 14 15  1  0  0  0  0
 15 16  1  0  0  0  0
 15 30  2  0  0  0  0
 16 17  2  0  0  0  0
 17 18  1  0  0  0  0
 18 19  2  0  0  0  0
 19 20  1  0  0  0  0
 19 30  1  0  0  0  0
 20 21  2  0  0  0  0
 20 22  1  0  0  0  0
 22 23  1  0  0  0  0
 23 24  1  0  0  0  0
 23 29  2  0  0  0  0
 24 25  2  0  0  0  0
 25 26  1  0  0  0  0
 26 27  1  0  0  0  0
 26 28  2  0  0  0  0
 28 29  1  0  0  0  0
M  CHG  2   9   1  11  -1
M  END
> <name>
decoy48

> <label>
0

$$$$
decoy49
  -OEChem-10082421392D

 26 28  0     0  0  0  0  0  0999 V2000
   -6.2960   -0.3990    0.0000 C   0  0  0  0  0  0  0  0  0  0  0  0
   -5.4300   -0.8990    0.0000 C   0  0  0  0  0  0  0  0  0  0  0  0
   -5.4310   -1.9000    0.0000 C   0  0  0  0  0  0  0  0  0  0  0  0
   -4.5650   -2.4000    0.0000 C   0  0  0  0  0  0  0  0  0  0  0  0
   -3.6990   -1.9010    0.0000 C   0  0  0  0  0  0  0  0  0  0  0  0
   -3.6980   -0.9010    0.0000 C   0  0  0  0  0  0  0  0  0  0  0  0
   -2.8320   -0.4020    0.0000 C   0  0  0  0  0  0  0  0  0  0  0  0
   -1.9660   -0.9020    0.0000 C   0  0  0  0  0  0  0  0  0  0  0  0
   -1.1000   -0.4030    0.0000 C   0  0  0  0  0  0  0  0  0  0  0  0
   -1.0990    0.5970    0.0000 O   0  0  0  0  0  0  0  0  0  0  0  0
   -0.2340   -0.9040    0.0000 N   0  0  0  0  0  0  0  0  0  0  0  0
    0.6320   -0.4040    0.0000 C   0  0  0  0  0  0  0  0  0  0  0  0
    0.6330    0.5960    0.0000 C   0  0  0  0  0  0  0  0  0  0  0  0
    1.5000    1.0950    0.0000 C   0  0  0  0  0  0  0  0  0  0  0  0
    2.3650    0.5940    0.0000 C   0  0  0  0  0  0  0  0  0  0  0  0
    3.2320    1.0940    0.0000 N   0  0  0  0  0  0  0  0  0  0  0  0
    3.2320    2.0940    0.0000 C   0  0  0  0  0  0  0  0  0  0  0  0
    4.0990    2.5930    0.0000 C   0  0  0  0  0  0  0  0  0  0  0  0
    4.9640    2.0920    0.0000 N   0  3  0  0  0  0  0  0  0  0  0  0
    5.8310    2.5920    0.0000 C   0  0  0  0  0  0  0  0  0  0  0  0
    4.9640    1.0920    0.0000 C   0  0  0  0  0  0  0  0  0  0  0  0
    4.0970    0.5930    0.0000 C   0  0  0  0  0  0  0  0  0  0  0  0
    2.3640   -0.4060    0.0000 C   0  0  0  0  0  0  0  0  0  0  0  0
    1.4980   -0.9050    0.0000 C   0  0  0  0  0  0  0  0  0  0  0  0
    1.4970   -1.9050    0.0000 C   0  0  0  0  0  0  0  0  0  0  0  0
   -4.5640   -0.4000    0.0000 C   0  0  0  0  0  0  0  0  0  0  0  0
  1  2  1  0  0  0  0
  2  3  1  0  0  0  0
  2 26  2  0  0  0  0
  3  4  2  0  0  0  0
  4  5  1  0  0  0  0
  5  6  2  0  0  0  0
  6  7  1  0  0  0  0
  6 26  1  0  0  0  0
  7  8  2  0  0  0  0
  8  9  1  0  0  0  0
  9 10  2  0  0  0  0
  9 11  1  0  0  0  0
 11 12  1  0  0  0  0
 12 13  1  0  0  0  0
 12 24  2  0  0  0  0
 13 14  2  0  0  0  0
 14 15  1  0  0  0  0
 15 16  1  0  0  0  0
 15 23  2  0  0  0  0
 16 17  1  0  0  0  0
 16 22  1  0  0  0  0
 17 18  1  0  0  0  0
 18 19  1  0  0  0  0
 19 20  1  0  0  0  0
 19 21  1  0  0  0  0
 21 22  1  0  0  0  0
 23 24  1  0  0  0  0
 24 25  1  0  0  0  0
M  CHG  1  19   1
M  END
> <name>
decoy49

> <label>
0

$$$$
decoy50
  -OEChem-10082421392D

 31 33  0     0  0  0  0  0  0999 V2000
    2.2680   -4.2700    0.0000 C   0  0  0  0  0  0  0  0  0  0  0  0
    2.2720   -3.2700    0.0000 N   0  0  0  0  0  0  0  0  0  0  0  0
    3.1400   -2.7730    0.0000 C   0  0  0  0  0  0  0  0  0  0  0  0
    1.4080   -2.7670    0.0000 C   0  0  0  0  0  0  0  0  0  0  0  0
    1.4110   -1.7670    0.0000 C   0  0  0  0  0  0  0  0  0  0  0  0
    0.5470   -1.2640    0.0000 C   0  0  0  0  0  0  0  0  0  0  0  0
   -0.3210   -1.7610    0.0000 C   0  0  0  0  0  0  0  0  0  0  0  0
   -1.1850   -1.2580    0.0000 C   0  0  0  0  0  0  0  0  0  0  0  0
   -1.1810   -0.2580    0.0000 C   0  0  0  0  0  0  0  0  0  0  0  0
   -2.0460    0.2450    0.0000 N   0  0  0  0  0  0  0  0  0  0  0  0
   -2.0420    1.2450    0.0000 C   0  0  0  0  0  0  0  0  0  0  0  0
   -1.1740    1.7420    0.0000 O   0  0  0  0  0  0  0  0  0  0  0  0
   -2.9060    1.7480    0.0000 C   0  0  0  0  0  0  0  0  0  0  0  0
   -3.7740    1.2510    0.0000 C   0  0  0  0  0  0  0  0  0  0  0  0
   -4.6380    1.7550    0.0000 C   0  0  0  0  0  0  0  0  0  0  0  0
   -4.6340    2.7550    0.0000 C   0  0  0  0  0  0  0  0  0  0  0  0
   -3.7670    3.2510    0.0000 C   0  0  0  0  0  0  0  0  0  0  0  0
   -3.7630    4.2510    0.0000 F   0  0  0  0  0  0  0  0  0  0  0  0
   -2.9020    2.7480    0.0000 C   0  0  0  0  0  0  0  0  0  0  0  0
   -0.3140    0.2390    0.0000 C   0  0  0  0  0  0  0  0  0  0  0  0
   -0.3100    1.2390    0.0000 O   0  0  0  0  0  0  0  0  0  0  0  0
    0.5510   -0.2640    0.0000 N   0  0  0  0  0  0  0  0  0  0  0  0
    1.4180    0.2330    0.0000 N   0  0  0  0  0  0  0  0  0  0  0  0
    2.2830   -0.2700    0.0000 C   0  0  0  0  0  0  0  0  0  0  0  0
    3.1510    0.2270    0.0000 C   0  0  0  0  0  0  0  0  0  0  0  0
    4.0620   -0.1840    0.0000 C   0  0  0  0  0  0  0  0  0  0  0  0
    4.7340    0.5570    0.0000 C   0  0  0  0  0  0  0  0  0  0  0  0
    4.2380    1.4250    0.0000 C   0  0  0  0  0  0  0  0  0  0  0  0
    3.2580    1.2210    0.0000 O   0  0  0  0  0  0  0  0  0  0  0  0
   -0.3240   -2.7610    0.0000 C   0  0  0  0  0  0  0  0  0  0  0  0
    0.5400   -3.2640    0.0000 C   0  0  0  0  0  0  0  0  0  0  0  0
  1  2  1  0  0  0  0
  2  3  1  0  0  0  0
  2  4  1  0  0  0  0
  4  5  1  0  0  0  0
  4 31  2  0  0  0  0
  5  6  2  0  0  0  0
  6  7  1  0  0  0  0
  7  8  1  0  0  0  0
  7 30  2  0  0  0  0
  8  9  2  0  0  0  0
  9 10  1  0  0  0  0
  9 20  1  0  0  0  0
 10 11  1  0  0  0  0
 11 12  2  0  0  0  0
 11 13  1  0  0  0  0
 13 14  1  0  0  0  0
 13 19  2  0  0  0  0
 14 15  2  0  0  0  0
 15 16  1  0  0  0  0
 16 17  2  0  0  0  0
 17 18  1  0  0  0  0
 17 19  1  0  0  0  0
 20 21  2  0  0  0  0
 20 22  1  0  0  0  0
 22 23  1  0  0  0  0
 23 24  2  0  0  0  0
 24 25  1  0  0  0  0
 25 26  2  0  0  0  0
 25 29  1  0  0  0  0
 26 27  1  0  0  0  0
 27 28  2  0  0  0  0
 28 29  1  0  0  0  0
 30 31  1  0  0  0  0
M  END
> <name>
decoy50

> <label>
0

$$$$
decoy51
  -OEChem-10082421392D

 31 34  0     0  0  0  0  0  0999 V2000
   -3.1280    0.0140    0.0000 O   0  0  0  0  0  0  0  0  0  0  0  0
   -2.2620    0.5140    0.0000 C   0  0  0  0  0  0  0  0  0  0  0  0
   -2.2630    1.5140    0.0000 C   0  0  0  0  0  0  0  0  0  0  0  0
   -3.1300    2.0140    0.0000 C   0  0  0  0  0  0  0  0  0  0  0  0
   -3.1300    3.0140    0.0000 C   0  0  0  0  0  0  0  0  0  0  0  0
   -2.2650    3.5140    0.0000 C   0  0  0  0  0  0  0  0  0  0  0  0
   -2.2660    4.5140    0.0000 C   0  0  0  0  0  0  0  0  0  0  0  0
   -3.1320    5.0140    0.0000 C   0  0  0  0  0  0  0  0  0  0  0  0
   -3.9980    4.5130    0.0000 C   0  0  0  0  0  0  0  0  0  0  0  0
   -4.8640    5.0120    0.0000 F   0  0  0  0  0  0  0  0  0  0  0  0
   -3.9970    3.5130    0.0000 C   0  0  0  0  0  0  0  0  0  0  0  0
   -1.3960    0.0150    0.0000 N   0  0  0  0  0  0  0  0  0  0  0  0
   -1.3950   -0.9850    0.0000 C   0  0  0  0  0  0  0  0  0  0  0  0
   -2.2610   -1.4860    0.0000 C   0  0  0  0  0  0  0  0  0  0  0  0
   -2.2600   -2.4860    0.0000 C   0  0  0  0  0  0  0  0  0  0  0  0
   -1.3940   -2.9850    0.0000 C   0  0  0  0  0  0  0  0  0  0  0  0
   -0.5280   -2.4840    0.0000 C   0  0  0  0  0  0  0  0  0  0  0  0
   -0.5290   -1.4840    0.0000 C   0  0  0  0  0  0  0  0  0  0  0  0
    0.3370   -0.9840    0.0000 C   0  0  0  0  0  0  0  0  0  0  0  0
    0.3360    0.0160    0.0000 O   0  0  0  0  0  0  0  0  0  0  0  0
    1.2030   -1.4830    0.0000 N   0  0  0  0  0  0  0  0  0  0  0  0
    2.0690   -0.9820    0.0000 C   0  0  0  0  0  0  0  0  0  0  0  0
    2.9350   -1.4810    0.0000 C   0  0  0  0  0  0  0  0  0  0  0  0
    2.9360   -2.4820    0.0000 C   0  0  0  0  0  0  0  0  0  0  0  0
    3.8020   -2.9810    0.0000 C   0  0  0  0  0  0  0  0  0  0  0  0
    4.6680   -2.4800    0.0000 C   0  0  0  0  0  0  0  0  0  0  0  0
    4.6670   -1.4800    0.0000 C   0  0  0  0  0  0  0  0  0  0  0  0
    3.8010   -0.9810    0.0000 C   0  0  0  0  0  0  0  0  0  0  0  0
    5.6180   -1.1700    0.0000 O   0  0  0  0  0  0  0  0  0  0  0  0
    6.2060   -1.9790    0.0000 C   0  0  0  0  0  0  0  0  0  0  0  0
    5.6190   -2.7890    0.0000 O   0  0  0  0  0  0  0  0  0  0  0  0
  1  2  2  0  0  0  0
  2  3  1  0  0  0  0
  2 12  1  0  0  0  0
  3  4  2  0  0  0  0
  4  5  1  0  0  0  0
  5  6  1  0  0  0  0
  5 11  2  0  0  0  0
  6  7  2  0  0  0  0
  7  8  1  0  0  0  0
  8  9  2  0  0  0  0
  9 10  1  0  0  0  0
  9 11  1  0  0  0  0
 12 13  1  0  0  0  0
 13 14  1  0  0  0  0
 13 18  2  0  0  0  0
 14 15  2  0  0  0  0
 15 16  1  0  0  0  0
 16 17  2  0  0  0  0
 17 18  1  0  0  0  0
 18 19  1  0  0  0  0
 19 20  2  0  0  0  0
 19 21  1  0  0  0  0
 21 22  1  0  0  0  0
 22 23  1  0  0  0  0
 23 24  2  0  0  0  0
 23 28  1  0  0  0  0
 24 25  1  0  0  0  0
 25 26  2  0  0  0  0
 26 27  1  0  0  0  0
 26 31  1  0  0  0  0
 27 28  2  0  0  0  0
 27 29  1  0  0  0  0
 29 30  1  0  0  0  0
 30 31  1  0  0  0  0
M  END
> <name>
decoy51

> <label>
0

$$$$
decoy52
  -OEChem-10082421392D

 30 32  0     0  0  0  0  0  0999 V2000
   -4.7420    3.8570    0.0000 C   0  0  0  0  0  0  0  0  0  0  0  0
   -3.8750    3.3590    0.0000 O   0  0  0  0  0  0  0  0  0  0  0  0
   -3.0100    3.8600    0.0000 C   0  0  0  0  0  0  0  0  0  0  0  0
   -3.0120    4.8600    0.0000 C   0  0  0  0  0  0  0  0  0  0  0  0
   -2.1470    5.3620    0.0000 C   0  0  0  0  0  0  0  0  0  0  0  0
   -1.2800    4.8640    0.0000 C   0  0  0  0  0  0  0  0  0  0  0  0
   -1.2780    3.8640    0.0000 C   0  0  0  0  0  0  0  0  0  0  0  0
   -2.1430    3.3620    0.0000 C   0  0  0  0  0  0  0  0  0  0  0  0
   -2.1410    2.3620    0.0000 N   0  0  0  0  0  0  0  0  0  0  0  0
   -1.2740    1.8640    0.0000 S   0  0  0  0  0  0  0  0  0  0  0  0
   -0.7760    2.7310    0.0000 O   0  0  0  0  0  0  0  0  0  0  0  0
   -1.7720    0.9970    0.0000 O   0  0  0  0  0  0  0  0  0  0  0  0
   -0.4070    1.3660    0.0000 C   0  0  0  0  0  0  0  0  0  0  0  0
    0.4580    1.8680    0.0000 C   0  0  0  0  0  0  0  0  0  0  0  0
    1.3250    1.3690    0.0000 C   0  0  0  0  0  0  0  0  0  0  0  0
    1.3270    0.3690    0.0000 C   0  0  0  0  0  0  0  0  0  0  0  0
    0.4620   -0.1320    0.0000 C   0  0  0  0  0  0  0  0  0  0  0  0
    0.4640   -1.1320    0.0000 N   0  0  0  0  0  0  0  0  0  0  0  0
    1.3310   -1.6310    0.0000 C   0  0  0  0  0  0  0  0  0  0  0  0
    2.1960   -1.1290    0.0000 O   0  0  0  0  0  0  0  0  0  0  0  0
    1.3330   -2.6310    0.0000 C   0  0  0  0  0  0  0  0  0  0  0  0
    2.2000   -3.1290    0.0000 C   0  0  0  0  0  0  0  0  0  0  0  0
    2.2020   -4.1290    0.0000 C   0  0  0  0  0  0  0  0  0  0  0  0
    1.3370   -4.6310    0.0000 C   0  0  0  0  0  0  0  0  0  0  0  0
    1.3390   -5.6310    0.0000 C   0  0  0  0  0  0  0  0  0  0  0  0
    2.2060   -6.1290    0.0000 C   0  0  0  0  0  0  0  0  0  0  0  0
    3.0710   -5.6270    0.0000 C   0  0  0  0  0  0  0  0  0  0  0  0
    3.9380   -6.1250    0.0000 F   0  0  0  0  0  0  0  0  0  0  0  0
    3.0690   -4.6270    0.0000 C   0  0  0  0  0  0  0  0  0  0  0  0
   -0.4050    0.3660    0.0000 C   0  0  0  0  0  0  0  0  0  0  0  0
  1  2  1  0  0  0  0
  2  3  1  0  0  0  0
  3  4  1  0  0  0  0
  3  8  2  0  0  0  0
  4  5  2  0  0  0  0
  5  6  1  0  0  0  0
  6  7  2  0  0  0  0
  7  8  1  0  0  0  0
  8  9  1  0  0  0  0
  9 10  1  0  0  0  0
 10 11  2  0  0  0  0
 10 12  2  0  0  0  0
 10 13  1  0  0  0  0
 13 14  1  0  0  0  0
 13 30  2  0  0  0  0
 14 15  2  0  0  0  0
 15 16  1  0  0  0  0
 16 17  2  0  0  0  0
 17 18  1  0  0  0  0
 17 30  1  0  0  0  0
 18 19  1  0  0  0  0
 19 20  2  0  0  0  0
 19 21  1  0  0  0  0
 21 22  2  0  0  0  0
 22 23  1  0  0  0  0
 23 24  1  0  0  0  0
 23 29  2  0  0  0  0
 24 25  2  0  0  0  0
 25 26  1  0  0  0  0
 26 27  2  0  0  0  0
 27 28  1  0  0  0  0
 27 29  1  0  0  0  0
M  END
> <name>
decoy52

> <label>
0

$$$$
decoy53
  -OEChem-10082421392D

 30 32  0     0  0  0  0  0  0999 V2000
    0.2440   -6.5000    0.0000 C   0  0  0  0  0  0  0  0  0  0  0  0
    0.2420   -5.5000    0.0000 O   0  0  0  0  0  0  0  0  0  0  0  0
    1.1070   -4.9980    0.0000 C   0  0  0  0  0  0  0  0  0  0  0  0
    1.9740   -5.4960    0.0000 C   0  0  0  0  0  0  0  0  0  0  0  0
    2.8390   -4.9940    0.0000 C   0  0  0  0  0  0  0  0  0  0  0  0
    2.8370   -3.9940    0.0000 C   0  0  0  0  0  0  0  0  0  0  0  0
    1.9700   -3.4960    0.0000 C   0  0  0  0  0  0  0  0  0  0  0  0
    1.1050   -3.9980    0.0000 C   0  0  0  0  0  0  0  0  0  0  0  0
    0.2380   -3.5000    0.0000 N   0  0  0  0  0  0  0  0  0  0  0  0
    0.2360   -2.5000    0.0000 S   0  0  0  0  0  0  0  0  0  0  0  0
   -0.7640   -2.5020    0.0000 O   0  0  0  0  0  0  0  0  0  0  0  0
    1.2360   -2.4980    0.0000 O   0  0  0  0  0  0  0  0  0  0  0  0
    0.2340   -1.5000    0.0000 C   0  0  0  0  0  0  0  0  0  0  0  0
   -0.6330   -1.0010    0.0000 C   0  0  0  0  0  0  0  0  0  0  0  0
   -0.6350   -0.0010    0.0000 C   0  0  0  0  0  0  0  0  0  0  0  0
    0.2300    0.5000    0.0000 C   0  0  0  0  0  0  0  0  0  0  0  0
    0.2280    1.5000    0.0000 C   0  0  0  0  0  0  0  0  0  0  0  0
   -0.6390    1.9990    0.0000 C   0  0  0  0  0  0  0  0  0  0  0  0
   -0.6410    2.9990    0.0000 C   0  0  0  0  0  0  0  0  0  0  0  0
    0.2240    3.5000    0.0000 O   0  0  0  0  0  0  0  0  0  0  0  0
   -1.5080    3.4970    0.0000 N   0  0  0  0  0  0  0  0  0  0  0  0
   -1.5100    4.4970    0.0000 C   0  0  0  0  0  0  0  0  0  0  0  0
   -0.6450    4.9990    0.0000 C   0  0  0  0  0  0  0  0  0  0  0  0
   -0.6470    5.9980    0.0000 C   0  0  0  0  0  0  0  0  0  0  0  0
   -1.5140    6.4970    0.0000 C   0  0  0  0  0  0  0  0  0  0  0  0
   -2.3790    5.9950    0.0000 C   0  0  0  0  0  0  0  0  0  0  0  0
   -3.2460    6.4930    0.0000 F   0  0  0  0  0  0  0  0  0  0  0  0
   -2.3770    4.9950    0.0000 C   0  0  0  0  0  0  0  0  0  0  0  0
    1.0970    0.0020    0.0000 C   0  0  0  0  0  0  0  0  0  0  0  0
    1.0990   -0.9980    0.0000 C   0  0  0  0  0  0  0  0  0  0  0  0
  1  2  1  0  0  0  0
  2  3  1  0  0  0  0
  3  4  1  0  0  0  0
  3  8  2  0  0  0  0
  4  5  2  0  0  0  0
  5  6  1  0  0  0  0
  6  7  2  0  0  0  0
  7  8  1  0  0  0  0
  8  9  1  0  0  0  0
  9 10  1  0  0  0  0
 10 11  2  0  0  0  0
 10 12  2  0  0  0  0
 10 13  1  0  0  0  0
 13 14  1  0  0  0  0
 13 30  2  0  0  0  0
 14 15  2  0  0  0  0
 15 16  1  0  0  0  0
 16 17  1  0  0  0  0
 16 29  2  0  0  0  0
 17 18  2  0  0  0  0
 18 19  1  0  0  0  0
 19 20  2  0  0  0  0
 19 21  1  0  0  0  0
 21 22  1  0  0  0  0
 22 23  1  0  0  0  0
 22 28  2  0  0  0  0
 23 24  2  0  0  0  0
 24 25  1  0  0  0  0
 25 26  2  0  0  0  0
 26 27  1  0  0  0  0
 26 28  1  0  0  0  0
 29 30  1  0  0  0  0
M  END
> <name>
decoy53

> <label>
0

$$$$
decoy54
  -OEChem-10082421392D

 30 32  0     0  0  0  0  0  0999 V2000
   -3.4770   -6.4930    0.0000 C   0  0  0  0  0  0  0  0  0  0  0  0
   -3.4750   -5.4930    0.0000 O   0  0  0  0  0  0  0  0  0  0  0  0
   -2.6080   -4.9950    0.0000 C   0  0  0  0  0  0  0  0  0  0  0  0
   -2.6060   -3.9950    0.0000 C   0  0  0  0  0  0  0  0  0  0  0  0
   -1.7390   -3.4960    0.0000 C   0  0  0  0  0  0  0  0  0  0  0  0
   -0.8740   -3.9980    0.0000 C   0  0  0  0  0  0  0  0  0  0  0  0
   -0.0070   -3.5000    0.0000 N   0  0  0  0  0  0  0  0  0  0  0  0
   -0.0050   -2.5000    0.0000 S   0  0  0  0  0  0  0  0  0  0  0  0
    0.9950   -2.5020    0.0000 O   0  0  0  0  0  0  0  0  0  0  0  0
   -1.0050   -2.4980    0.0000 O   0  0  0  0  0  0  0  0  0  0  0  0
   -0.0030   -1.5000    0.0000 C   0  0  0  0  0  0  0  0  0  0  0  0
    0.8640   -1.0020    0.0000 C   0  0  0  0  0  0  0  0  0  0  0  0
    0.8660   -0.0020    0.0000 C   0  0  0  0  0  0  0  0  0  0  0  0
    0.0010    0.5000    0.0000 C   0  0  0  0  0  0  0  0  0  0  0  0
    0.0030    1.5000    0.0000 C   0  0  0  0  0  0  0  0  0  0  0  0
    0.8700    1.9980    0.0000 C   0  0  0  0  0  0  0  0  0  0  0  0
    0.8720    2.9980    0.0000 C   0  0  0  0  0  0  0  0  0  0  0  0
    0.0070    3.5000    0.0000 O   0  0  0  0  0  0  0  0  0  0  0  0
    1.7390    3.4960    0.0000 N   0  0  0  0  0  0  0  0  0  0  0  0
    1.7410    4.4960    0.0000 C   0  0  0  0  0  0  0  0  0  0  0  0
    0.8760    4.9980    0.0000 C   0  0  0  0  0  0  0  0  0  0  0  0
    0.8780    5.9980    0.0000 C   0  0  0  0  0  0  0  0  0  0  0  0
    1.7450    6.4960    0.0000 C   0  0  0  0  0  0  0  0  0  0  0  0
    2.6100    5.9950    0.0000 C   0  0  0  0  0  0  0  0  0  0  0  0
    3.4770    6.4930    0.0000 F   0  0  0  0  0  0  0  0  0  0  0  0
    2.6080    4.9950    0.0000 C   0  0  0  0  0  0  0  0  0  0  0  0
   -0.8660    0.0020    0.0000 C   0  0  0  0  0  0  0  0  0  0  0  0
   -0.8680   -0.9980    0.0000 C   0  0  0  0  0  0  0  0  0  0  0  0
   -0.8760   -4.9980    0.0000 C   0  0  0  0  0  0  0  0  0  0  0  0
   -1.7430   -5.4960    0.0000 C   0  0  0  0  0  0  0  0  0  0  0  0
  1  2  1  0  0  0  0
  2  3  1  0  0  0  0
  3  4  1  0  0  0  0
  3 30  2  0  0  0  0
  4  5  2  0  0  0  0
  5  6  1  0  0  0  0
  6  7  1  0  0  0  0
  6 29  2  0  0  0  0
  7  8  1  0  0  0  0
  8  9  2  0  0  0  0
  8 10  2  0  0  0  0
  8 11  1  0  0  0  0
 11 12  1  0  0  0  0
 11 28  2  0  0  0  0
 12 13  2  0  0  0  0
 13 14  1  0  0  0  0
 14 15  1  0  0  0  0
 14 27  2  0  0  0  0
 15 16  2  0  0  0  0
 16 17  1  0  0  0  0
 17 18  2  0  0  0  0
 17 19  1  0  0  0  0
 19 20  1  0  0  0  0
 20 21  1  0  0  0  0
 20 26  2  0  0  0  0
 21 22  2  0  0  0  0
 22 23  1  0  0  0  0
 23 24  2  0  0  0  0
 24 25  1  0  0  0  0
 24 26  1  0  0  0  0
 27 28  1  0  0  0  0
 29 30  1  0  0  0  0
M  END
> <name>
decoy54

> <label>
0

$$$$
decoy55
  -OEChem-10082421392D

 27 29  0     0  0  0  0  0  0999 V2000
   -6.8970   -0.8650    0.0000 C   0  0  0  0  0  0  0  0  0  0  0  0
   -6.0300   -0.3660    0.0000 O   0  0  0  0  0  0  0  0  0  0  0  0
   -5.1650   -0.8660    0.0000 C   0  0  0  0  0  0  0  0  0  0  0  0
   -5.1660   -1.8660    0.0000 C   0  0  0  0  0  0  0  0  0  0  0  0
   -4.3000   -2.3670    0.0000 C   0  0  0  0  0  0  0  0  0  0  0  0
   -3.4330   -1.8680    0.0000 C   0  0  0  0  0  0  0  0  0  0  0  0
   -3.4330   -0.8680    0.0000 C   0  0  0  0  0  0  0  0  0  0  0  0
   -2.5660   -0.3680    0.0000 C   0  0  0  0  0  0  0  0  0  0  0  0
   -1.7010   -0.8690    0.0000 C   0  0  0  0  0  0  0  0  0  0  0  0
   -0.8340   -0.3700    0.0000 C   0  0  0  0  0  0  0  0  0  0  0  0
   -0.8330    0.6300    0.0000 O   0  0  0  0  0  0  0  0  0  0  0  0
    0.0310   -0.8700    0.0000 N   0  0  0  0  0  0  0  0  0  0  0  0
    0.8980   -0.3710    0.0000 C   0  0  0  0  0  0  0  0  0  0  0  0
    0.8980    0.6290    0.0000 C   0  0  0  0  0  0  0  0  0  0  0  0
    1.7650    1.1280    0.0000 C   0  0  0  0  0  0  0  0  0  0  0  0
    2.6310    0.6280    0.0000 C   0  0  0  0  0  0  0  0  0  0  0  0
    3.4970    1.1270    0.0000 N   0  0  0  0  0  0  0  0  0  0  0  0
    3.4980    2.1270    0.0000 C   0  0  0  0  0  0  0  0  0  0  0  0
    4.3640    2.6260    0.0000 C   0  0  0  0  0  0  0  0  0  0  0  0
    5.2300    2.1260    0.0000 N   0  3  0  0  0  0  0  0  0  0  0  0
    6.0960    2.6250    0.0000 C   0  0  0  0  0  0  0  0  0  0  0  0
    5.2290    1.1250    0.0000 C   0  0  0  0  0  0  0  0  0  0  0  0
    4.3630    0.6260    0.0000 C   0  0  0  0  0  0  0  0  0  0  0  0
    2.6300   -0.3720    0.0000 C   0  0  0  0  0  0  0  0  0  0  0  0
    1.7630   -0.8720    0.0000 C   0  0  0  0  0  0  0  0  0  0  0  0
    1.7630   -1.8720    0.0000 C   0  0  0  0  0  0  0  0  0  0  0  0
   -4.2980   -0.3670    0.0000 C   0  0  0  0  0  0  0  0  0  0  0  0
  1  2  1  0  0  0  0
  2  3  1  0  0  0  0
  3  4  1  0  0  0  0
  3 27  2  0  0  0  0
  4  5  2  0  0  0  0
  5  6  1  0  0  0  0
  6  7  2  0  0  0  0
  7  8  1  0  0  0  0
  7 27  1  0  0  0  0
  8  9  2  0  0  0  0
  9 10  1  0  0  0  0
 10 11  2  0  0  0  0
 10 12  1  0  0  0  0
 12 13  1  0  0  0  0
 13 14  1  0  0  0  0
 13 25  2  0  0  0  0
 14 15  2  0  0  0  0
 15 16  1  0  0  0  0
 16 17  1  0  0  0  0
 16 24  2  0  0  0  0
 17 18  1  0  0  0  0
 17 23  1  0  0  0  0
 18 19  1  0  0  0  0
 19 20  1  0  0  0  0
 20 21  1  0  0  0  0
 20 22  1  0  0  0  0
 22 23  1  0  0  0  0
 24 25  1  0  0  0  0
 25 26  1  0  0  0  0
M  CHG  1  20   1
M  END
> <name>
decoy55

> <label>
0

$$$$
decoy56
  -OEChem-10082421392D

 30 32  0     0  0  0  0  0  0999 V2000
   -7.6490   -0.6230    0.0000 C   0  0  0  0  0  0  0  0  0  0  0  0
   -6.7840   -0.1220    0.0000 O   0  0  0  0  0  0  0  0  0  0  0  0
   -5.9170   -0.6210    0.0000 C   0  0  0  0  0  0  0  0  0  0  0  0
   -5.9160   -1.6220    0.0000 C   0  0  0  0  0  0  0  0  0  0  0  0
   -5.0500   -2.1210    0.0000 C   0  0  0  0  0  0  0  0  0  0  0  0
   -4.1840   -1.6200    0.0000 C   0  0  0  0  0  0  0  0  0  0  0  0
   -4.1850   -0.6200    0.0000 C   0  0  0  0  0  0  0  0  0  0  0  0
   -3.3200   -0.1190    0.0000 C   0  0  0  0  0  0  0  0  0  0  0  0
   -2.4530   -0.6190    0.0000 C   0  0  0  0  0  0  0  0  0  0  0  0
   -1.5880   -0.1180    0.0000 C   0  0  0  0  0  0  0  0  0  0  0  0
   -1.5880    0.8820    0.0000 O   0  0  0  0  0  0  0  0  0  0  0  0
   -0.7210   -0.6170    0.0000 N   0  0  0  0  0  0  0  0  0  0  0  0
    0.1440   -0.1170    0.0000 C   0  0  0  0  0  0  0  0  0  0  0  0
    0.1440    0.8840    0.0000 C   0  0  0  0  0  0  0  0  0  0  0  0
    1.0090    1.3840    0.0000 C   0  0  0  0  0  0  0  0  0  0  0  0
    1.8760    0.8850    0.0000 C   0  0  0  0  0  0  0  0  0  0  0  0
    2.7410    1.3860    0.0000 C   0  0  0  0  0  0  0  0  0  0  0  0
    1.8760   -0.1150    0.0000 C   0  0  0  0  0  0  0  0  0  0  0  0
    2.7430   -0.6140    0.0000 N   0  0  0  0  0  0  0  0  0  0  0  0
    3.6080   -0.1140    0.0000 S   0  0  0  0  0  0  0  0  0  0  0  0
    4.1090   -0.9800    0.0000 O   0  0  0  0  0  0  0  0  0  0  0  0
    3.1080    0.7520    0.0000 O   0  0  0  0  0  0  0  0  0  0  0  0
    4.4740    0.3870    0.0000 C   0  0  0  0  0  0  0  0  0  0  0  0
    5.3400   -0.1120    0.0000 C   0  0  0  0  0  0  0  0  0  0  0  0
    6.2060    0.3880    0.0000 C   0  0  0  0  0  0  0  0  0  0  0  0
    6.2050    1.3880    0.0000 C   0  0  0  0  0  0  0  0  0  0  0  0
    5.3390    1.8880    0.0000 C   0  0  0  0  0  0  0  0  0  0  0  0
    4.4730    1.3870    0.0000 C   0  0  0  0  0  0  0  0  0  0  0  0
    1.0110   -0.6160    0.0000 C   0  0  0  0  0  0  0  0  0  0  0  0
   -5.0520   -0.1210    0.0000 C   0  0  0  0  0  0  0  0  0  0  0  0
  1  2  1  0  0  0  0
  2  3  1  0  0  0  0
  3  4  1  0  0  0  0
  3 30  2  0  0  0  0
  4  5  2  0  0  0  0
  5  6  1  0  0  0  0
  6  7  2  0  0  0  0
  7  8  1  0  0  0  0
  7 30  1  0  0  0  0
  8  9  2  0  0  0  0
  9 10  1  0  0  0  0
 10 11  2  0  0  0  0
 10 12  1  0  0  0  0
 12 13  1  0  0  0  0
 13 14  2  0  0  0  0
 13 29  1  0  0  0  0
 14 15  1  0  0  0  0
 15 16  2  0  0  0  0
 16 17  1  0  0  0  0
 16 18  1  0  0  0  0
 18 19  1  0  0  0  0
 18 29  2  0  0  0  0
 19 20  1  0  0  0  0
 20 21  2  0  0  0  0
 20 22  2  0  0  0  0
 20 23  1  0  0  0  0
 23 24  1  0  0  0  0
 23 28  2  0  0  0  0
 24 25  2  0  0  0  0
 25 26  1  0  0  0  0
 26 27  2  0  0  0  0
 27 28  1  0  0  0  0
M  END
> <name>
decoy56

> <label>
0

$$$$
decoy57
  -OEChem-10082421392D

 30 32  0     0  0  0  0  0  0999 V2000
   -7.7400   -0.8390    0.0000 C   0  0  0  0  0  0  0  0  0  0  0  0
   -6.8720   -0.3420    0.0000 O   0  0  0  0  0  0  0  0  0  0  0  0
   -6.0080   -0.8450    0.0000 C   0  0  0  0  0  0  0  0  0  0  0  0
   -6.0110   -1.8450    0.0000 C   0  0  0  0  0  0  0  0  0  0  0  0
   -5.1470   -2.3480    0.0000 C   0  0  0  0  0  0  0  0  0  0  0  0
   -4.2790   -1.8510    0.0000 C   0  0  0  0  0  0  0  0  0  0  0  0
   -4.2760   -0.8510    0.0000 C   0  0  0  0  0  0  0  0  0  0  0  0
   -3.4080   -0.3540    0.0000 C   0  0  0  0  0  0  0  0  0  0  0  0
   -2.5440   -0.8580    0.0000 C   0  0  0  0  0  0  0  0  0  0  0  0
   -1.6760   -0.3610    0.0000 C   0  0  0  0  0  0  0  0  0  0  0  0
   -1.6720    0.6390    0.0000 O   0  0  0  0  0  0  0  0  0  0  0  0
   -0.8110   -0.8640    0.0000 N   0  0  0  0  0  0  0  0  0  0  0  0
    0.0560   -0.3670    0.0000 C   0  0  0  0  0  0  0  0  0  0  0  0
    0.9210   -0.8700    0.0000 C   0  0  0  0  0  0  0  0  0  0  0  0
    1.7880   -0.3730    0.0000 C   0  0  0  0  0  0  0  0  0  0  0  0
    1.7920    0.6270    0.0000 C   0  0  0  0  0  0  0  0  0  0  0  0
    2.6600    1.1240    0.0000 S   0  0  0  0  0  0  0  0  0  0  0  0
    3.1570    0.2560    0.0000 O   0  0  0  0  0  0  0  0  0  0  0  0
    2.1630    1.9920    0.0000 O   0  0  0  0  0  0  0  0  0  0  0  0
    3.5280    1.6210    0.0000 N   0  0  0  0  0  0  0  0  0  0  0  0
    4.3920    1.1180    0.0000 C   0  0  0  0  0  0  0  0  0  0  0  0
    4.3880    0.1180    0.0000 C   0  0  0  0  0  0  0  0  0  0  0  0
    5.2520   -0.3860    0.0000 C   0  0  0  0  0  0  0  0  0  0  0  0
    6.1200    0.1110    0.0000 C   0  0  0  0  0  0  0  0  0  0  0  0
    6.1240    1.1110    0.0000 C   0  0  0  0  0  0  0  0  0  0  0  0
    6.9920    1.6080    0.0000 F   0  0  0  0  0  0  0  0  0  0  0  0
    5.2600    1.6150    0.0000 C   0  0  0  0  0  0  0  0  0  0  0  0
    0.9280    1.1300    0.0000 C   0  0  0  0  0  0  0  0  0  0  0  0
    0.0600    0.6330    0.0000 C   0  0  0  0  0  0  0  0  0  0  0  0
   -5.1400   -0.3480    0.0000 C   0  0  0  0  0  0  0  0  0  0  0  0
  1  2  1  0  0  0  0
  2  3  1  0  0  0  0
  3  4  1  0  0  0  0
  3 30  2  0  0  0  0
  4  5  2  0  0  0  0
  5  6  1  0  0  0  0
  6  7  2  0  0  0  0
  7  8  1  0  0  0  0
  7 30  1  0  0  0  0
  8  9  2  0  0  0  0
  9 10  1  0  0  0  0
 10 11  2  0  0  0  0
 10 12  1  0  0  0  0
 12 13  1  0  0  0  0
 13 14  1  0  0  0  0
 13 29  2  0  0  0  0
 14 15  2  0  0  0  0
 15 16  1  0  0  0  0
 16 17  1  0  0  0  0
 16 28  2  0  0  0  0
 17 18  2  0  0  0  0
 17 19  2  0  0  0  0
 17 20  1  0  0  0  0
 20 21  1  0  0  0  0
 21 22  1  0  0  0  0
 21 27  2  0  0  0  0
 22 23  2  0  0  0  0
 23 24  1  0  0  0  0
 24 25  2  0  0  0  0
 25 26  1  0  0  0  0
 25 27  1  0  0  0  0
 28 29  1  0  0  0  0
M  END
> <name>
decoy57

> <label>
0

$$$$
decoy58
  -OEChem-10082421392D

 30 32  0     0  0  0  0  0  0999 V2000
   -1.3580    1.4160    0.0000 O   0  0  0  0  0  0  0  0  0  0  0  0
   -1.3570    0.4160    0.0000 C   0  0  0  0  0  0  0  0  0  0  0  0
   -2.2230   -0.0850    0.0000 C   0  0  0  0  0  0  0  0  0  0  0  0
   -3.0890    0.4140    0.0000 C   0  0  0  0  0  0  0  0  0  0  0  0
   -3.9550   -0.0860    0.0000 C   0  0  0  0  0  0  0  0  0  0  0  0
   -3.9540   -1.0860    0.0000 C   0  0  0  0  0  0  0  0  0  0  0  0
   -4.8200   -1.5870    0.0000 C   0  0  0  0  0  0  0  0  0  0  0  0
   -5.6860   -1.0880    0.0000 C   0  0  0  0  0  0  0  0  0  0  0  0
   -5.6870   -0.0880    0.0000 C   0  0  0  0  0  0  0  0  0  0  0  0
   -6.5530    0.4120    0.0000 N   0  3  0  0  0  0  0  0  0  0  0  0
   -6.5540    1.4120    0.0000 O   0  0  0  0  0  0  0  0  0  0  0  0
   -7.4190   -0.0890    0.0000 O   0  5  0  0  0  0  0  0  0  0  0  0
   -4.8210    0.4130    0.0000 C   0  0  0  0  0  0  0  0  0  0  0  0
   -0.4910   -0.0840    0.0000 N   0  0  0  0  0  0  0  0  0  0  0  0
    0.3750    0.4170    0.0000 C   0  0  0  0  0  0  0  0  0  0  0  0
    0.3740    1.4170    0.0000 C   0  0  0  0  0  0  0  0  0  0  0  0
    1.2400    1.9180    0.0000 C   0  0  0  0  0  0  0  0  0  0  0  0
    2.1060    1.4180    0.0000 C   0  0  0  0  0  0  0  0  0  0  0  0
    2.1070    0.4180    0.0000 C   0  0  0  0  0  0  0  0  0  0  0  0
    2.9730   -0.0810    0.0000 C   0  0  0  0  0  0  0  0  0  0  0  0
    2.9740   -1.0810    0.0000 O   0  0  0  0  0  0  0  0  0  0  0  0
    3.8390    0.4200    0.0000 N   0  0  0  0  0  0  0  0  0  0  0  0
    4.7050   -0.0800    0.0000 C   0  0  0  0  0  0  0  0  0  0  0  0
    4.7060   -1.0800    0.0000 C   0  0  0  0  0  0  0  0  0  0  0  0
    5.5720   -1.5790    0.0000 C   0  0  0  0  0  0  0  0  0  0  0  0
    6.4380   -1.0780    0.0000 C   0  0  0  0  0  0  0  0  0  0  0  0
    7.3040   -1.5780    0.0000 F   0  0  0  0  0  0  0  0  0  0  0  0
    6.4370   -0.0780    0.0000 C   0  0  0  0  0  0  0  0  0  0  0  0
    5.5710    0.4210    0.0000 C   0  0  0  0  0  0  0  0  0  0  0  0
    1.2410   -0.0820    0.0000 C   0  0  0  0  0  0  0  0  0  0  0  0
  1  2  2  0  0  0  0
  2  3  1  0  0  0  0
  2 14  1  0  0  0  0
  3  4  2  0  0  0  0
  4  5  1  0  0  0  0
  5  6  1  0  0  0  0
  5 13  2  0  0  0  0
  6  7  2  0  0  0  0
  7  8  1  0  0  0  0
  8  9  2  0  0  0  0
  9 10  1  0  0  0  0
  9 13  1  0  0  0  0
 10 11  2  0  0  0  0
 10 12  1  0  0  0  0
 14 15  1  0  0  0  0
 15 16  1  0  0  0  0
 15 30  2  0  0  0  0
 16 17  2  0  0  0  0
 17 18  1  0  0  0  0
 18 19  2  0  0  0  0
 19 20  1  0  0  0  0
 19 30  1  0  0  0  0
 20 21  2  0  0  0  0
 20 22  1  0  0  0  0
 22 23  1  0  0  0  0
 23 24  1  0  0  0  0
 23 29  2  0  0  0  0
 24 25  2  0  0  0  0
 25 26  1  0  0  0  0
 26 27  1  0  0  0  0
 26 28  2  0  0  0  0
 28 29  1  0  0  0  0
M  CHG  2  10   1  12  -1
M  END
> <name>
decoy58

> <label>
0

$$$$
decoy59
  -OEChem-10082421392D

 30 32  0     0  0  0  0  0  0999 V2000
   -4.7420    3.7900    0.0000 C   0  0  0  0  0  0  0  0  0  0  0  0
   -3.8750    3.2920    0.0000 O   0  0  0  0  0  0  0  0  0  0  0  0
   -3.0100    3.7940    0.0000 C   0  0  0  0  0  0  0  0  0  0  0  0
   -3.0120    4.7940    0.0000 C   0  0  0  0  0  0  0  0  0  0  0  0
   -2.1470    5.2960    0.0000 C   0  0  0  0  0  0  0  0  0  0  0  0
   -1.2800    4.7980    0.0000 C   0  0  0  0  0  0  0  0  0  0  0  0
   -1.2780    3.7980    0.0000 C   0  0  0  0  0  0  0  0  0  0  0  0
   -2.1430    3.2960    0.0000 C   0  0  0  0  0  0  0  0  0  0  0  0
   -2.1410    2.2960    0.0000 N   0  0  0  0  0  0  0  0  0  0  0  0
   -1.2740    1.7980    0.0000 S   0  0  0  0  0  0  0  0  0  0  0  0
   -0.7760    2.6640    0.0000 O   0  0  0  0  0  0  0  0  0  0  0  0
   -1.7720    0.9300    0.0000 O   0  0  0  0  0  0  0  0  0  0  0  0
   -0.4070    1.2990    0.0000 C   0  0  0  0  0  0  0  0  0  0  0  0
    0.4580    1.8010    0.0000 C   0  0  0  0  0  0  0  0  0  0  0  0
    1.3250    1.3030    0.0000 C   0  0  0  0  0  0  0  0  0  0  0  0
    1.3270    0.3030    0.0000 C   0  0  0  0  0  0  0  0  0  0  0  0
    0.4620   -0.1990    0.0000 C   0  0  0  0  0  0  0  0  0  0  0  0
    0.4640   -1.1990    0.0000 N   0  0  0  0  0  0  0  0  0  0  0  0
    1.3310   -1.6970    0.0000 C   0  0  0  0  0  0  0  0  0  0  0  0
    2.1960   -1.1960    0.0000 O   0  0  0  0  0  0  0  0  0  0  0  0
    1.3330   -2.6970    0.0000 C   0  0  0  0  0  0  0  0  0  0  0  0
    2.2000   -3.1960    0.0000 C   0  0  0  0  0  0  0  0  0  0  0  0
    2.2020   -4.1960    0.0000 C   0  0  0  0  0  0  0  0  0  0  0  0
    1.3370   -4.6970    0.0000 C   0  0  0  0  0  0  0  0  0  0  0  0
    1.3390   -5.6970    0.0000 C   0  0  0  0  0  0  0  0  0  0  0  0
    2.2060   -6.1960    0.0000 C   0  0  0  0  0  0  0  0  0  0  0  0
    3.0710   -5.6940    0.0000 C   0  0  0  0  0  0  0  0  0  0  0  0
    3.0690   -4.6940    0.0000 C   0  0  0  0  0  0  0  0  0  0  0  0
    3.9340   -4.1920    0.0000 C   0  0  0  0  0  0  0  0  0  0  0  0
   -0.4050    0.2990    0.0000 C   0  0  0  0  0  0  0  0  0  0  0  0
  1  2  1  0  0  0  0
  2  3  1  0  0  0  0
  3  4  1  0  0  0  0
  3  8  2  0  0  0  0
  4  5  2  0  0  0  0
  5  6  1  0  0  0  0
  6  7  2  0  0  0  0
  7  8  1  0  0  0  0
  8  9  1  0  0  0  0
  9 10  1  0  0  0  0
 10 11  2  0  0  0  0
 10 12  2  0  0  0  0
 10 13  1  0  0  0  0
 13 14  1  0  0  0  0
 13 30  2  0  0  0  0
 14 15  2  0  0  0  0
 15 16  1  0  0  0  0
 16 17  2  0  0  0  0
 17 18  1  0  0  0  0
 17 30  1  0  0  0  0
 18 19  1  0  0  0  0
 19 20  2  0  0  0  0
 19 21  1  0  0  0  0
 21 22  2  0  0  0  0
 22 23  1  0  0  0  0
 23 24  1  0  0  0  0
 23 28  2  0  0  0  0
 24 25  2  0  0  0  0
 25 26  1  0  0  0  0
 26 27  2  0  0  0  0
 27 28  1  0  0  0  0
 28 29  1  0  0  0  0
M  END
> <name>
decoy59

> <label>
0

$$$$
decoy60
  -OEChem-10082421392D

 30 32  0     0  0  0  0  0  0999 V2000
    1.4570    6.5970    0.0000 C   0  0  0  0  0  0  0  0  0  0  0  0
    2.3220    6.0950    0.0000 O   0  0  0  0  0  0  0  0  0  0  0  0
    2.3200    5.0950    0.0000 C   0  0  0  0  0  0  0  0  0  0  0  0
    3.1850    4.5940    0.0000 C   0  0  0  0  0  0  0  0  0  0  0  0
    3.1830    3.5940    0.0000 C   0  0  0  0  0  0  0  0  0  0  0  0
    2.3160    3.0950    0.0000 C   0  0  0  0  0  0  0  0  0  0  0  0
    2.3140    2.0950    0.0000 N   0  0  0  0  0  0  0  0  0  0  0  0
    1.4470    1.5970    0.0000 S   0  0  0  0  0  0  0  0  0  0  0  0
    0.9480    2.4640    0.0000 O   0  0  0  0  0  0  0  0  0  0  0  0
    1.9450    0.7300    0.0000 O   0  0  0  0  0  0  0  0  0  0  0  0
    0.5790    1.0990    0.0000 C   0  0  0  0  0  0  0  0  0  0  0  0
   -0.2850    1.6010    0.0000 C   0  0  0  0  0  0  0  0  0  0  0  0
   -1.1530    1.1020    0.0000 C   0  0  0  0  0  0  0  0  0  0  0  0
   -1.1540    0.1020    0.0000 C   0  0  0  0  0  0  0  0  0  0  0  0
   -0.2890   -0.4000    0.0000 C   0  0  0  0  0  0  0  0  0  0  0  0
   -0.2910   -1.3990    0.0000 N   0  0  0  0  0  0  0  0  0  0  0  0
   -1.1590   -1.8980    0.0000 C   0  0  0  0  0  0  0  0  0  0  0  0
   -2.0240   -1.3960    0.0000 O   0  0  0  0  0  0  0  0  0  0  0  0
   -1.1610   -2.8980    0.0000 C   0  0  0  0  0  0  0  0  0  0  0  0
   -2.0280   -3.3960    0.0000 C   0  0  0  0  0  0  0  0  0  0  0  0
   -2.0300   -4.3960    0.0000 C   0  0  0  0  0  0  0  0  0  0  0  0
   -1.1650   -4.8980    0.0000 C   0  0  0  0  0  0  0  0  0  0  0  0
   -1.1670   -5.8980    0.0000 C   0  0  0  0  0  0  0  0  0  0  0  0
   -2.0340   -6.3960    0.0000 C   0  0  0  0  0  0  0  0  0  0  0  0
   -2.8990   -5.8940    0.0000 C   0  0  0  0  0  0  0  0  0  0  0  0
   -2.8970   -4.8940    0.0000 C   0  0  0  0  0  0  0  0  0  0  0  0
   -3.7620   -4.3920    0.0000 C   0  0  0  0  0  0  0  0  0  0  0  0
    0.5780    0.0990    0.0000 C   0  0  0  0  0  0  0  0  0  0  0  0
    1.4510    3.5970    0.0000 C   0  0  0  0  0  0  0  0  0  0  0  0
    1.4530    4.5970    0.0000 C   0  0  0  0  0  0  0  0  0  0  0  0
  1  2  1  0  0  0  0
  2  3  1  0  0  0  0
  3  4  1  0  0  0  0
  3 30  2  0  0  0  0
  4  5  2  0  0  0  0
  5  6  1  0  0  0  0
  6  7  1  0  0  0  0
  6 29  2  0  0  0  0
  7  8  1  0  0  0  0
  8  9  2  0  0  0  0
  8 10  2  0  0  0  0
  8 11  1  0  0  0  0
 11 12  1  0  0  0  0
 11 28  2  0  0  0  0
 12 13  2  0  0  0  0
 13 14  1  0  0  0  0
 14 15  2  0  0  0  0
 15 16  1  0  0  0  0
 15 28  1  0  0  0  0
 16 17  1  0  0  0  0
 17 18  2  0  0  0  0
 17 19  1  0  0  0  0
 19 20  2  0  0  0  0
 20 21  1  0  0  0  0
 21 22  1  0  0  0  0
 21 26  2  0  0  0  0
 22 23  2  0  0  0  0
 23 24  1  0  0  0  0
 24 25  2  0  0  0  0
 25 26  1  0  0  0  0
 26 27  1  0  0  0  0
 29 30  1  0  0  0  0
M  END
> <name>
decoy60

> <label>
0

$$$$
decoy61
  -OEChem-10082421392D

 29 31  0     0  0  0  0  0  0999 V2000
   -1.5230   -0.1530    0.0000 O   0  0  0  0  0  0  0  0  0  0  0  0
   -1.5260   -1.1530    0.0000 C   0  0  0  0  0  0  0  0  0  0  0  0
   -2.3940   -1.6510    0.0000 C   0  0  0  0  0  0  0  0  0  0  0  0
   -3.2580   -1.1480    0.0000 C   0  0  0  0  0  0  0  0  0  0  0  0
   -4.1250   -1.6460    0.0000 C   0  0  0  0  0  0  0  0  0  0  0  0
   -4.1290   -2.6460    0.0000 C   0  0  0  0  0  0  0  0  0  0  0  0
   -4.9950   -3.1450    0.0000 C   0  0  0  0  0  0  0  0  0  0  0  0
   -5.8590   -2.6410    0.0000 C   0  0  0  0  0  0  0  0  0  0  0  0
   -5.8580   -1.6410    0.0000 C   0  0  0  0  0  0  0  0  0  0  0  0
   -4.9900   -1.1440    0.0000 C   0  0  0  0  0  0  0  0  0  0  0  0
   -4.9880   -0.1430    0.0000 Cl  0  0  0  0  0  0  0  0  0  0  0  0
   -0.6610   -1.6560    0.0000 N   0  0  0  0  0  0  0  0  0  0  0  0
    0.2070   -1.1580    0.0000 C   0  0  0  0  0  0  0  0  0  0  0  0
    1.0710   -1.6620    0.0000 C   0  0  0  0  0  0  0  0  0  0  0  0
    1.9370   -1.1630    0.0000 C   0  0  0  0  0  0  0  0  0  0  0  0
    1.9410   -0.1620    0.0000 C   0  0  0  0  0  0  0  0  0  0  0  0
    2.8080    0.3350    0.0000 S   0  0  0  0  0  0  0  0  0  0  0  0
    3.3050   -0.5330    0.0000 O   0  0  0  0  0  0  0  0  0  0  0  0
    2.3100    1.2020    0.0000 O   0  0  0  0  0  0  0  0  0  0  0  0
    3.6750    0.8320    0.0000 N   0  0  0  0  0  0  0  0  0  0  0  0
    3.6770    1.8320    0.0000 C   0  0  0  0  0  0  0  0  0  0  0  0
    4.5810    2.2630    0.0000 C   0  0  0  0  0  0  0  0  0  0  0  0
    4.8040    3.2380    0.0000 C   0  0  0  0  0  0  0  0  0  0  0  0
    4.1850    4.0230    0.0000 C   0  0  0  0  0  0  0  0  0  0  0  0
    3.1850    4.0240    0.0000 C   0  0  0  0  0  0  0  0  0  0  0  0
    2.5580    3.2440    0.0000 C   0  0  0  0  0  0  0  0  0  0  0  0
    2.7790    2.2680    0.0000 N   0  0  0  0  0  0  0  0  0  0  0  0
    1.0760    0.3390    0.0000 C   0  0  0  0  0  0  0  0  0  0  0  0
    0.2080   -0.1570    0.0000 C   0  0  0  0  0  0  0  0  0  0  0  0
  1  2  2  0  0  0  0
  2  3  1  0  0  0  0
  2 12  1  0  0  0  0
  3  4  2  0  0  0  0
  4  5  1  0  0  0  0
  5  6  1  0  0  0  0
  5 10  2  0  0  0  0
  6  7  2  0  0  0  0
  7  8  1  0  0  0  0
  8  9  2  0  0  0  0
  9 10  1  0  0  0  0
 10 11  1  0  0  0  0
 12 13  1  0  0  0  0
 13 14  1  0  0  0  0
 13 29  2  0  0  0  0
 14 15  2  0  0  0  0
 15 16  1  0  0  0  0
 16 17  1  0  0  0  0
 16 28  2  0  0  0  0
 17 18  2  0  0  0  0
 17 19  2  0  0  0  0
 17 20  1  0  0  0  0
 20 21  2  0  0  0  0
 21 22  1  0  0  0  0
 21 27  1  0  0  0  0
 22 23  1  0  0  0  0
 23 24  1  0  0  0  0
 24 25  1  0  0  0  0
 25 26  1  0  0  0  0
 26 27  1  0  0  0  0
 28 29  1  0  0  0  0
M  END
> <name>
decoy61

> <label>
0

$$$$
decoy62
  -OEChem-10082421392D

 31 34  0     0  0  0  0  0  0999 V2000
   -3.1280    0.0780    0.0000 O   0  0  0  0  0  0  0  0  0  0  0  0
   -2.2620    0.5790    0.0000 C   0  0  0  0  0  0  0  0  0  0  0  0
   -2.2630    1.5790    0.0000 C   0  0  0  0  0  0  0  0  0  0  0  0
   -3.1300    2.0780    0.0000 C   0  0  0  0  0  0  0  0  0  0  0  0
   -3.1300    3.0780    0.0000 C   0  0  0  0  0  0  0  0  0  0  0  0
   -2.2650    3.5790    0.0000 C   0  0  0  0  0  0  0  0  0  0  0  0
   -2.2660    4.5790    0.0000 C   0  0  0  0  0  0  0  0  0  0  0  0
   -3.1320    5.0780    0.0000 C   0  0  0  0  0  0  0  0  0  0  0  0
   -3.9980    4.5780    0.0000 C   0  0  0  0  0  0  0  0  0  0  0  0
   -3.9970    3.5770    0.0000 C   0  0  0  0  0  0  0  0  0  0  0  0
   -4.8620    3.0770    0.0000 F   0  0  0  0  0  0  0  0  0  0  0  0
   -1.3960    0.0800    0.0000 N   0  0  0  0  0  0  0  0  0  0  0  0
   -1.3950   -0.9210    0.0000 C   0  0  0  0  0  0  0  0  0  0  0  0
   -2.2610   -1.4210    0.0000 C   0  0  0  0  0  0  0  0  0  0  0  0
   -2.2600   -2.4210    0.0000 C   0  0  0  0  0  0  0  0  0  0  0  0
   -1.3940   -2.9200    0.0000 C   0  0  0  0  0  0  0  0  0  0  0  0
   -0.5280   -2.4200    0.0000 C   0  0  0  0  0  0  0  0  0  0  0  0
   -0.5290   -1.4200    0.0000 C   0  0  0  0  0  0  0  0  0  0  0  0
    0.3370   -0.9190    0.0000 C   0  0  0  0  0  0  0  0  0  0  0  0
    0.3360    0.0810    0.0000 O   0  0  0  0  0  0  0  0  0  0  0  0
    1.2030   -1.4180    0.0000 N   0  0  0  0  0  0  0  0  0  0  0  0
    2.0690   -0.9180    0.0000 C   0  0  0  0  0  0  0  0  0  0  0  0
    2.9350   -1.4170    0.0000 C   0  0  0  0  0  0  0  0  0  0  0  0
    2.9360   -2.4170    0.0000 C   0  0  0  0  0  0  0  0  0  0  0  0
    3.8020   -2.9160    0.0000 C   0  0  0  0  0  0  0  0  0  0  0  0
    4.6680   -2.4160    0.0000 C   0  0  0  0  0  0  0  0  0  0  0  0
    4.6670   -1.4160    0.0000 C   0  0  0  0  0  0  0  0  0  0  0  0
    3.8010   -0.9160    0.0000 C   0  0  0  0  0  0  0  0  0  0  0  0
    5.6180   -1.1060    0.0000 O   0  0  0  0  0  0  0  0  0  0  0  0
    6.2060   -1.9140    0.0000 C   0  0  0  0  0  0  0  0  0  0  0  0
    5.6190   -2.7240    0.0000 O   0  0  0  0  0  0  0  0  0  0  0  0
  1  2  2  0  0  0  0
  2  3  1  0  0  0  0
  2 12  1  0  0  0  0
  3  4  2  0  0  0  0
  4  5  1  0  0  0  0
  5  6  1  0  0  0  0
  5 10  2  0  0  0  0
  6  7  2  0  0  0  0
  7  8  1  0  0  0  0
  8  9  2  0  0  0  0
  9 10  1  0  0  0  0
 10 11  1  0  0  0  0
 12 13  1  0  0  0  0
 13 14  1  0  0  0  0
 13 18  2  0  0  0  0
 14 15  2  0  0  0  0
 15 16  1  0  0  0  0
 16 17  2  0  0  0  0
 17 18  1  0  0  0  0
 18 19  1  0  0  0  0
 19 20  2  0  0  0  0
 19 21  1  0  0  0  0
 21 22  1  0  0  0  0
 22 23  1  0  0  0  0
 23 24  2  0  0  0  0
 23 28  1  0  0  0  0
 24 25  1  0  0  0  0
 25 26  2  0  0  0  0
 26 27  1  0  0  0  0
 26 31  1  0  0  0  0
 27 28  2  0  0  0  0
 27 29  1  0  0  0  0
 29 30  1  0  0  0  0
 30 31  1  0  0  0  0
M  END
> <name>
decoy62

> <label>
0

$$$$
decoy63
  -OEChem-10082421392D

 30 32  0     0  0  0  0  0  0999 V2000
   -5.4580    3.4120    0.0000 C   0  0  0  0  0  0  0  0  0  0  0  0
   -4.5920    2.9130    0.0000 O   0  0  0  0  0  0  0  0  0  0  0  0
   -3.7270    3.4140    0.0000 C   0  0  0  0  0  0  0  0  0  0  0  0
   -3.7280    4.4140    0.0000 C   0  0  0  0  0  0  0  0  0  0  0  0
   -2.8620    4.9140    0.0000 C   0  0  0  0  0  0  0  0  0  0  0  0
   -1.9950    4.4150    0.0000 C   0  0  0  0  0  0  0  0  0  0  0  0
   -1.9940    3.4150    0.0000 C   0  0  0  0  0  0  0  0  0  0  0  0
   -2.8600    2.9140    0.0000 C   0  0  0  0  0  0  0  0  0  0  0  0
   -2.8590    1.9140    0.0000 N   0  0  0  0  0  0  0  0  0  0  0  0
   -1.9930    1.4150    0.0000 S   0  0  0  0  0  0  0  0  0  0  0  0
   -2.4920    0.5490    0.0000 O   0  0  0  0  0  0  0  0  0  0  0  0
   -1.4940    2.2810    0.0000 O   0  0  0  0  0  0  0  0  0  0  0  0
   -1.1270    0.9160    0.0000 C   0  0  0  0  0  0  0  0  0  0  0  0
   -1.1260   -0.0840    0.0000 C   0  0  0  0  0  0  0  0  0  0  0  0
   -0.2590   -0.5830    0.0000 C   0  0  0  0  0  0  0  0  0  0  0  0
    0.6060   -0.0830    0.0000 C   0  0  0  0  0  0  0  0  0  0  0  0
    1.4730   -0.5820    0.0000 C   0  0  0  0  0  0  0  0  0  0  0  0
    1.4740   -1.5820    0.0000 C   0  0  0  0  0  0  0  0  0  0  0  0
    2.3400   -2.0810    0.0000 C   0  0  0  0  0  0  0  0  0  0  0  0
    3.2060   -1.5810    0.0000 O   0  0  0  0  0  0  0  0  0  0  0  0
    2.3410   -3.0810    0.0000 N   0  0  0  0  0  0  0  0  0  0  0  0
    3.2070   -3.5810    0.0000 C   0  0  0  0  0  0  0  0  0  0  0  0
    4.0730   -3.0800    0.0000 C   0  0  0  0  0  0  0  0  0  0  0  0
    4.9390   -3.5790    0.0000 C   0  0  0  0  0  0  0  0  0  0  0  0
    4.9400   -4.5790    0.0000 C   0  0  0  0  0  0  0  0  0  0  0  0
    4.0740   -5.0800    0.0000 C   0  0  0  0  0  0  0  0  0  0  0  0
    3.2080   -4.5810    0.0000 C   0  0  0  0  0  0  0  0  0  0  0  0
    2.3420   -5.0810    0.0000 F   0  0  0  0  0  0  0  0  0  0  0  0
    0.6060    0.9170    0.0000 C   0  0  0  0  0  0  0  0  0  0  0  0
   -0.2610    1.4160    0.0000 C   0  0  0  0  0  0  0  0  0  0  0  0
  1  2  1  0  0  0  0
  2  3  1  0  0  0  0
  3  4  1  0  0  0  0
  3  8  2  0  0  0  0
  4  5  2  0  0  0  0
  5  6  1  0  0  0  0
  6  7  2  0  0  0  0
  7  8  1  0  0  0  0
  8  9  1  0  0  0  0
  9 10  1  0  0  0  0
 10 11  2  0  0  0  0
 10 12  2  0  0  0  0
 10 13  1  0  0  0  0
 13 14  1  0  0  0  0
 13 30  2  0  0  0  0
 14 15  2  0  0  0  0
 15 16  1  0  0  0  0
 16 17  1  0  0  0  0
 16 29  2  0  0  0  0
 17 18  2  0  0  0  0
 18 19  1  0  0  0  0
 19 20  2  0  0  0  0
 19 21  1  0  0  0  0
 21 22  1  0  0  0  0
 22 23  1  0  0  0  0
 22 27  2  0  0  0  0
 23 24  2  0  0  0  0
 24 25  1  0  0  0  0
 25 26  2  0  0  0  0
 26 27  1  0  0  0  0
 27 28  1  0  0  0  0
 29 30  1  0  0  0  0
M  END
> <name>
decoy63

> <label>
0

$$$$
decoy64
  -OEChem-10082421392D

 30 32  0     0  0  0  0  0  0999 V2000
   -3.4770   -6.4260    0.0000 C   0  0  0  0  0  0  0  0  0  0  0  0
   -3.4750   -5.4260    0.0000 O   0  0  0  0  0  0  0  0  0  0  0  0
   -2.6080   -4.9280    0.0000 C   0  0  0  0  0  0  0  0  0  0  0  0
   -2.6060   -3.9280    0.0000 C   0  0  0  0  0  0  0  0  0  0  0  0
   -1.7390   -3.4300    0.0000 C   0  0  0  0  0  0  0  0  0  0  0  0
   -0.8740   -3.9320    0.0000 C   0  0  0  0  0  0  0  0  0  0  0  0
   -0.0070   -3.4330    0.0000 N   0  0  0  0  0  0  0  0  0  0  0  0
   -0.0050   -2.4330    0.0000 S   0  0  0  0  0  0  0  0  0  0  0  0
    0.9950   -2.4350    0.0000 O   0  0  0  0  0  0  0  0  0  0  0  0
   -1.0050   -2.4310    0.0000 O   0  0  0  0  0  0  0  0  0  0  0  0
   -0.0030   -1.4330    0.0000 C   0  0  0  0  0  0  0  0  0  0  0  0
    0.8640   -0.9350    0.0000 C   0  0  0  0  0  0  0  0  0  0  0  0
    0.8660    0.0650    0.0000 C   0  0  0  0  0  0  0  0  0  0  0  0
    0.0010    0.5670    0.0000 C   0  0  0  0  0  0  0  0  0  0  0  0
    0.0030    1.5670    0.0000 C   0  0  0  0  0  0  0  0  0  0  0  0
    0.8700    2.0650    0.0000 C   0  0  0  0  0  0  0  0  0  0  0  0
    0.8720    3.0650    0.0000 C   0  0  0  0  0  0  0  0  0  0  0  0
    0.0070    3.5670    0.0000 O   0  0  0  0  0  0  0  0  0  0  0  0
    1.7390    3.5630    0.0000 N   0  0  0  0  0  0  0  0  0  0  0  0
    1.7410    4.5630    0.0000 C   0  0  0  0  0  0  0  0  0  0  0  0
    0.8760    5.0650    0.0000 C   0  0  0  0  0  0  0  0  0  0  0  0
    0.8780    6.0650    0.0000 C   0  0  0  0  0  0  0  0  0  0  0  0
    1.7450    6.5630    0.0000 C   0  0  0  0  0  0  0  0  0  0  0  0
    2.6100    6.0610    0.0000 C   0  0  0  0  0  0  0  0  0  0  0  0
    2.6080    5.0610    0.0000 C   0  0  0  0  0  0  0  0  0  0  0  0
    3.4730    4.5600    0.0000 F   0  0  0  0  0  0  0  0  0  0  0  0
   -0.8660    0.0680    0.0000 C   0  0  0  0  0  0  0  0  0  0  0  0
   -0.8680   -0.9320    0.0000 C   0  0  0  0  0  0  0  0  0  0  0  0
   -0.8760   -4.9320    0.0000 C   0  0  0  0  0  0  0  0  0  0  0  0
   -1.7430   -5.4300    0.0000 C   0  0  0  0  0  0  0  0  0  0  0  0
  1  2  1  0  0  0  0
  2  3  1  0  0  0  0
  3  4  1  0  0  0  0
  3 30  2  0  0  0  0
  4  5  2  0  0  0  0
  5  6  1  0  0  0  0
  6  7  1  0  0  0  0
  6 29  2  0  0  0  0
  7  8  1  0  0  0  0
  8  9  2  0  0  0  0
  8 10  2  0  0  0  0
  8 11  1  0  0  0  0
 11 12  1  0  0  0  0
 11 28  2  0  0  0  0
 12 13  2  0  0  0  0
 13 14  1  0  0  0  0
 14 15  1  0  0  0  0
 14 27  2  0  0  0  0
 15 16  2  0  0  0  0
 16 17  1  0  0  0  0
 17 18  2  0  0  0  0
 17 19  1  0  0  0  0
 19 20  1  0  0  0  0
 20 21  1  0  0  0  0
 20 25  2  0  0  0  0
 21 22  2  0  0  0  0
 22 23  1  0  0  0  0
 23 24  2  0  0  0  0
 24 25  1  0  0  0  0
 25 26  1  0  0  0  0
 27 28  1  0  0  0  0
 29 30  1  0  0  0  0
M  END
> <name>
decoy64

> <label>
0

$$$$
decoy65
  -OEChem-10082421392D

 30 32  0     0  0  0  0  0  0999 V2000
   -1.8930    5.8700    0.0000 C   0  0  0  0  0  0  0  0  0  0  0  0
   -1.8950    4.8700    0.0000 O   0  0  0  0  0  0  0  0  0  0  0  0
   -2.7620    4.3720    0.0000 C   0  0  0  0  0  0  0  0  0  0  0  0
   -3.6280    4.8740    0.0000 C   0  0  0  0  0  0  0  0  0  0  0  0
   -4.4940    4.3760    0.0000 C   0  0  0  0  0  0  0  0  0  0  0  0
   -4.4960    3.3760    0.0000 C   0  0  0  0  0  0  0  0  0  0  0  0
   -3.6320    2.8740    0.0000 C   0  0  0  0  0  0  0  0  0  0  0  0
   -2.7640    3.3720    0.0000 C   0  0  0  0  0  0  0  0  0  0  0  0
   -1.9000    2.8700    0.0000 C   0  0  0  0  0  0  0  0  0  0  0  0
   -1.9020    1.8700    0.0000 C   0  0  0  0  0  0  0  0  0  0  0  0
   -1.0360    1.3690    0.0000 C   0  0  0  0  0  0  0  0  0  0  0  0
   -0.1700    1.8670    0.0000 O   0  0  0  0  0  0  0  0  0  0  0  0
   -1.0380    0.3690    0.0000 N   0  0  0  0  0  0  0  0  0  0  0  0
   -0.1740   -0.1330    0.0000 C   0  0  0  0  0  0  0  0  0  0  0  0
    0.6940    0.3650    0.0000 C   0  0  0  0  0  0  0  0  0  0  0  0
    1.5580   -0.1360    0.0000 C   0  0  0  0  0  0  0  0  0  0  0  0
    1.5570   -1.1360    0.0000 C   0  0  0  0  0  0  0  0  0  0  0  0
    2.4220   -1.6380    0.0000 C   0  0  0  0  0  0  0  0  0  0  0  0
    0.6900   -1.6350    0.0000 C   0  0  0  0  0  0  0  0  0  0  0  0
    0.6880   -2.6350    0.0000 N   0  0  0  0  0  0  0  0  0  0  0  0
    1.5520   -3.1360    0.0000 S   0  0  0  0  0  0  0  0  0  0  0  0
    1.0510   -4.0010    0.0000 O   0  0  0  0  0  0  0  0  0  0  0  0
    2.0540   -2.2710    0.0000 O   0  0  0  0  0  0  0  0  0  0  0  0
    2.4180   -3.6380    0.0000 C   0  0  0  0  0  0  0  0  0  0  0  0
    2.4160   -4.6380    0.0000 C   0  0  0  0  0  0  0  0  0  0  0  0
    3.2800   -5.1400    0.0000 C   0  0  0  0  0  0  0  0  0  0  0  0
    4.1480   -4.6420    0.0000 C   0  0  0  0  0  0  0  0  0  0  0  0
    4.1500   -3.6420    0.0000 C   0  0  0  0  0  0  0  0  0  0  0  0
    3.2840   -3.1400    0.0000 C   0  0  0  0  0  0  0  0  0  0  0  0
   -0.1750   -1.1330    0.0000 C   0  0  0  0  0  0  0  0  0  0  0  0
  1  2  1  0  0  0  0
  2  3  1  0  0  0  0
  3  4  1  0  0  0  0
  3  8  2  0  0  0  0
  4  5  2  0  0  0  0
  5  6  1  0  0  0  0
  6  7  2  0  0  0  0
  7  8  1  0  0  0  0
  8  9  1  0  0  0  0
  9 10  2  0  0  0  0
 10 11  1  0  0  0  0
 11 12  2  0  0  0  0
 11 13  1  0  0  0  0
 13 14  1  0  0  0  0
 14 15  2  0  0  0  0
 14 30  1  0  0  0  0
 15 16  1  0  0  0  0
 16 17  2  0  0  0  0
 17 18  1  0  0  0  0
 17 19  1  0  0  0  0
 19 20  1  0  0  0  0
 19 30  2  0  0  0  0
 20 21  1  0  0  0  0
 21 22  2  0  0  0  0
 21 23  2  0  0  0  0
 21 24  1  0  0  0  0
 24 25  1  0  0  0  0
 24 29  2  0  0  0  0
 25 26  2  0  0  0  0
 26 27  1  0  0  0  0
 27 28  2  0  0  0  0
 28 29  1  0  0  0  0
M  END
> <name>
decoy65

> <label>
0

$$$$
decoy66
  -OEChem-10082421392D

 29 31  0     0  0  0  0  0  0999 V2000
    6.0340    1.8570    0.0000 C   0  0  0  0  0  0  0  0  0  0  0  0
    5.1670    1.3580    0.0000 O   0  0  0  0  0  0  0  0  0  0  0  0
    5.1660    0.3580    0.0000 C   0  0  0  0  0  0  0  0  0  0  0  0
    6.0320   -0.1430    0.0000 C   0  0  0  0  0  0  0  0  0  0  0  0
    6.0310   -1.1430    0.0000 C   0  0  0  0  0  0  0  0  0  0  0  0
    5.1650   -1.6420    0.0000 C   0  0  0  0  0  0  0  0  0  0  0  0
    4.2990   -1.1410    0.0000 C   0  0  0  0  0  0  0  0  0  0  0  0
    4.3000   -0.1410    0.0000 C   0  0  0  0  0  0  0  0  0  0  0  0
    3.4340    0.3590    0.0000 C   0  0  0  0  0  0  0  0  0  0  0  0
    2.5680   -0.1400    0.0000 C   0  0  0  0  0  0  0  0  0  0  0  0
    1.7020    0.3610    0.0000 C   0  0  0  0  0  0  0  0  0  0  0  0
    1.7030    1.3610    0.0000 O   0  0  0  0  0  0  0  0  0  0  0  0
    0.8360   -0.1380    0.0000 N   0  0  0  0  0  0  0  0  0  0  0  0
   -0.0300    0.3620    0.0000 C   0  0  0  0  0  0  0  0  0  0  0  0
   -0.0290    1.3620    0.0000 C   0  0  0  0  0  0  0  0  0  0  0  0
   -0.8940    1.8630    0.0000 C   0  0  0  0  0  0  0  0  0  0  0  0
   -1.7610    1.3640    0.0000 C   0  0  0  0  0  0  0  0  0  0  0  0
   -1.7620    0.3640    0.0000 C   0  0  0  0  0  0  0  0  0  0  0  0
   -2.6280   -0.1360    0.0000 C   0  0  0  0  0  0  0  0  0  0  0  0
   -2.6290   -1.1360    0.0000 O   0  0  0  0  0  0  0  0  0  0  0  0
   -3.4940    0.3650    0.0000 N   0  0  0  0  0  0  0  0  0  0  0  0
   -4.3600   -0.1340    0.0000 C   0  0  0  0  0  0  0  0  0  0  0  0
   -4.3610   -1.1340    0.0000 C   0  0  0  0  0  0  0  0  0  0  0  0
   -5.2270   -1.6340    0.0000 C   0  0  0  0  0  0  0  0  0  0  0  0
   -6.0930   -1.1330    0.0000 C   0  0  0  0  0  0  0  0  0  0  0  0
   -6.9590   -1.6320    0.0000 F   0  0  0  0  0  0  0  0  0  0  0  0
   -6.0920   -0.1330    0.0000 C   0  0  0  0  0  0  0  0  0  0  0  0
   -5.2260    0.3660    0.0000 C   0  0  0  0  0  0  0  0  0  0  0  0
   -0.8960   -0.1370    0.0000 C   0  0  0  0  0  0  0  0  0  0  0  0
  1  2  1  0  0  0  0
  2  3  1  0  0  0  0
  3  4  1  0  0  0  0
  3  8  2  0  0  0  0
  4  5  2  0  0  0  0
  5  6  1  0  0  0  0
  6  7  2  0  0  0  0
  7  8  1  0  0  0  0
  8  9  1  0  0  0  0
  9 10  2  0  0  0  0
 10 11  1  0  0  0  0
 11 12  2  0  0  0  0
 11 13  1  0  0  0  0
 13 14  1  0  0  0  0
 14 15  1  0  0  0  0
 14 29  2  0  0  0  0
 15 16  2  0  0  0  0
 16 17  1  0  0  0  0
 17 18  2  0  0  0  0
 18 19  1  0  0  0  0
 18 29  1  0  0  0  0
 19 20  2  0  0  0  0
 19 21  1  0  0  0  0
 21 22  1  0  0  0  0
 22 23  1  0  0  0  0
 22 28  2  0  0  0  0
 23 24  2  0  0  0  0
 24 25  1  0  0  0  0
 25 26  1  0  0  0  0
 25 27  2  0  0  0  0
 27 28  1  0  0  0  0
M  END
> <name>
decoy66

> <label>
0

$$$$
decoy67
  -OEChem-10082421392D

 30 32  0     0  0  0  0  0  0999 V2000
    5.5440    2.4960    0.0000 C   0  0  0  0  0  0  0  0  0  0  0  0
    4.6780    1.9960    0.0000 O   0  0  0  0  0  0  0  0  0  0  0  0
    4.6770    0.9960    0.0000 C   0  0  0  0  0  0  0  0  0  0  0  0
    5.5430    0.4960    0.0000 C   0  0  0  0  0  0  0  0  0  0  0  0
    5.5420   -0.5040    0.0000 C   0  0  0  0  0  0  0  0  0  0  0  0
    4.6760   -1.0040    0.0000 C   0  0  0  0  0  0  0  0  0  0  0  0
    3.8100   -0.5030    0.0000 C   0  0  0  0  0  0  0  0  0  0  0  0
    3.8110    0.4970    0.0000 C   0  0  0  0  0  0  0  0  0  0  0  0
    2.9450    0.9980    0.0000 C   0  0  0  0  0  0  0  0  0  0  0  0
    2.0790    0.4980    0.0000 C   0  0  0  0  0  0  0  0  0  0  0  0
    1.2130    0.9990    0.0000 C   0  0  0  0  0  0  0  0  0  0  0  0
    1.2140    1.9990    0.0000 O   0  0  0  0  0  0  0  0  0  0  0  0
    0.3470    0.5000    0.0000 N   0  0  0  0  0  0  0  0  0  0  0  0
   -0.5190    1.0000    0.0000 C   0  0  0  0  0  0  0  0  0  0  0  0
   -0.5180    2.0000    0.0000 C   0  0  0  0  0  0  0  0  0  0  0  0
   -1.3840    2.5010    0.0000 C   0  0  0  0  0  0  0  0  0  0  0  0
   -2.2500    2.0020    0.0000 C   0  0  0  0  0  0  0  0  0  0  0  0
   -2.2510    1.0020    0.0000 C   0  0  0  0  0  0  0  0  0  0  0  0
   -1.3850    0.5010    0.0000 C   0  0  0  0  0  0  0  0  0  0  0  0
   -1.3860   -0.4990    0.0000 N   0  0  0  0  0  0  0  0  0  0  0  0
   -2.2520   -0.9980    0.0000 S   0  0  0  0  0  0  0  0  0  0  0  0
   -1.7530   -1.8650    0.0000 O   0  0  0  0  0  0  0  0  0  0  0  0
   -2.7520   -0.1320    0.0000 O   0  0  0  0  0  0  0  0  0  0  0  0
   -3.1190   -1.4970    0.0000 C   0  0  0  0  0  0  0  0  0  0  0  0
   -3.1200   -2.4980    0.0000 C   0  0  0  0  0  0  0  0  0  0  0  0
   -3.9860   -2.9970    0.0000 C   0  0  0  0  0  0  0  0  0  0  0  0
   -4.8520   -2.4960    0.0000 C   0  0  0  0  0  0  0  0  0  0  0  0
   -5.7180   -2.9950    0.0000 F   0  0  0  0  0  0  0  0  0  0  0  0
   -4.8510   -1.4960    0.0000 C   0  0  0  0  0  0  0  0  0  0  0  0
   -3.9840   -0.9970    0.0000 C   0  0  0  0  0  0  0  0  0  0  0  0
  1  2  1  0  0  0  0
  2  3  1  0  0  0  0
  3  4  1  0  0  0  0
  3  8  2  0  0  0  0
  4  5  2  0  0  0  0
  5  6  1  0  0  0  0
  6  7  2  0  0  0  0
  7  8  1  0  0  0  0
  8  9  1  0  0  0  0
  9 10  2  0  0  0  0
 10 11  1  0  0  0  0
 11 12  2  0  0  0  0
 11 13  1  0  0  0  0
 13 14  1  0  0  0  0
 14 15  1  0  0  0  0
 14 19  2  0  0  0  0
 15 16  2  0  0  0  0
 16 17  1  0  0  0  0
 17 18  2  0  0  0  0
 18 19  1  0  0  0  0
 19 20  1  0  0  0  0
 20 21  1  0  0  0  0
 21 22  2  0  0  0  0
 21 23  2  0  0  0  0
 21 24  1  0  0  0  0
 24 25  1  0  0  0  0
 24 30  2  0  0  0  0
 25 26  2  0  0  0  0
 26 27  1  0  0  0  0
 27 28  1  0  0  0  0
 27 29  2  0  0  0  0
 29 30  1  0  0  0  0
M  END
> <name>
decoy67

> <label>
0

$$$$
decoy68
  -OEChem-10082421392D

 29 31  0     0  0  0  0  0  0999 V2000
   -5.5240    0.4700    0.0000 C   0  0  0  0  0  0  0  0  0  0  0  0
   -4.6580   -0.0310    0.0000 O   0  0  0  0  0  0  0  0  0  0  0  0
   -4.6590   -1.0310    0.0000 C   0  0  0  0  0  0  0  0  0  0  0  0
   -5.5260   -1.5300    0.0000 C   0  0  0  0  0  0  0  0  0  0  0  0
   -5.5260   -2.5300    0.0000 C   0  0  0  0  0  0  0  0  0  0  0  0
   -4.6610   -3.0310    0.0000 C   0  0  0  0  0  0  0  0  0  0  0  0
   -3.7940   -2.5320    0.0000 C   0  0  0  0  0  0  0  0  0  0  0  0
   -3.7940   -1.5320    0.0000 C   0  0  0  0  0  0  0  0  0  0  0  0
   -2.9270   -1.0320    0.0000 C   0  0  0  0  0  0  0  0  0  0  0  0
   -2.0620   -1.5330    0.0000 C   0  0  0  0  0  0  0  0  0  0  0  0
   -1.1950   -1.0340    0.0000 C   0  0  0  0  0  0  0  0  0  0  0  0
   -1.1940   -0.0340    0.0000 O   0  0  0  0  0  0  0  0  0  0  0  0
   -0.3300   -1.5340    0.0000 N   0  0  0  0  0  0  0  0  0  0  0  0
    0.5370   -1.0350    0.0000 C   0  0  0  0  0  0  0  0  0  0  0  0
    1.4020   -1.5360    0.0000 C   0  0  0  0  0  0  0  0  0  0  0  0
    2.2690   -1.0360    0.0000 C   0  0  0  0  0  0  0  0  0  0  0  0
    2.2700   -0.0360    0.0000 C   0  0  0  0  0  0  0  0  0  0  0  0
    3.1360    0.4630    0.0000 S   0  0  0  0  0  0  0  0  0  0  0  0
    3.6350   -0.4030    0.0000 O   0  0  0  0  0  0  0  0  0  0  0  0
    2.6360    1.3300    0.0000 O   0  0  0  0  0  0  0  0  0  0  0  0
    4.0020    0.9620    0.0000 N   0  0  0  0  0  0  0  0  0  0  0  0
    4.0030    1.9620    0.0000 C   0  0  0  0  0  0  0  0  0  0  0  0
    3.1380    2.4630    0.0000 C   0  0  0  0  0  0  0  0  0  0  0  0
    3.1380    3.4630    0.0000 C   0  0  0  0  0  0  0  0  0  0  0  0
    4.0050    3.9620    0.0000 C   0  0  0  0  0  0  0  0  0  0  0  0
    4.8700    3.4620    0.0000 C   0  0  0  0  0  0  0  0  0  0  0  0
    4.8700    2.4620    0.0000 C   0  0  0  0  0  0  0  0  0  0  0  0
    1.4040    0.4640    0.0000 C   0  0  0  0  0  0  0  0  0  0  0  0
    0.5380   -0.0350    0.0000 C   0  0  0  0  0  0  0  0  0  0  0  0
  1  2  1  0  0  0  0
  2  3  1  0  0  0  0
  3  4  1  0  0  0  0
  3  8  2  0  0  0  0
  4  5  2  0  0  0  0
  5  6  1  0  0  0  0
  6  7  2  0  0  0  0
  7  8  1  0  0  0  0
  8  9  1  0  0  0  0
  9 10  2  0  0  0  0
 10 11  1  0  0  0  0
 11 12  2  0  0  0  0
 11 13  1  0  0  0  0
 13 14  1  0  0  0  0
 14 15  1  0  0  0  0
 14 29  2  0  0  0  0
 15 16  2  0  0  0  0
 16 17  1  0  0  0  0
 17 18  1  0  0  0  0
 17 28  2  0  0  0  0
 18 19  2  0  0  0  0
 18 20  2  0  0  0  0
 18 21  1  0  0  0  0
 21 22  1  0  0  0  0
 22 23  1  0  0  0  0
 22 27  1  0  0  0  0
 23 24  1  0  0  0  0
 24 25  1  0  0  0  0
 25 26  1  0  0  0  0
 26 27  1  0  0  0  0
 28 29  1  0  0  0  0
M  END
> <name>
decoy68

> <label>
0

$$$$
decoy69
  -OEChem-10082421392D

 30 32  0     0  0  0  0  0  0999 V2000
   -5.4580    3.4120    0.0000 C   0  0  0  0  0  0  0  0  0  0  0  0
   -4.5920    2.9130    0.0000 O   0  0  0  0  0  0  0  0  0  0  0  0
   -3.7270    3.4140    0.0000 C   0  0  0  0  0  0  0  0  0  0  0  0
   -3.7280    4.4140    0.0000 C   0  0  0  0  0  0  0  0  0  0  0  0
   -2.8620    4.9140    0.0000 C   0  0  0  0  0  0  0  0  0  0  0  0
   -1.9950    4.4150    0.0000 C   0  0  0  0  0  0  0  0  0  0  0  0
   -1.9940    3.4150    0.0000 C   0  0  0  0  0  0  0  0  0  0  0  0
   -2.8600    2.9140    0.0000 C   0  0  0  0  0  0  0  0  0  0  0  0
   -2.8590    1.9140    0.0000 N   0  0  0  0  0  0  0  0  0  0  0  0
   -1.9930    1.4150    0.0000 S   0  0  0  0  0  0  0  0  0  0  0  0
   -2.4920    0.5490    0.0000 O   0  0  0  0  0  0  0  0  0  0  0  0
   -1.4940    2.2810    0.0000 O   0  0  0  0  0  0  0  0  0  0  0  0
   -1.1270    0.9160    0.0000 C   0  0  0  0  0  0  0  0  0  0  0  0
   -1.1260   -0.0840    0.0000 C   0  0  0  0  0  0  0  0  0  0  0  0
   -0.2590   -0.5830    0.0000 C   0  0  0  0  0  0  0  0  0  0  0  0
    0.6060   -0.0830    0.0000 C   0  0  0  0  0  0  0  0  0  0  0  0
    1.4730   -0.5820    0.0000 C   0  0  0  0  0  0  0  0  0  0  0  0
    1.4740   -1.5820    0.0000 C   0  0  0  0  0  0  0  0  0  0  0  0
    2.3400   -2.0810    0.0000 C   0  0  0  0  0  0  0  0  0  0  0  0
    3.2060   -1.5810    0.0000 O   0  0  0  0  0  0  0  0  0  0  0  0
    2.3410   -3.0810    0.0000 N   0  0  0  0  0  0  0  0  0  0  0  0
    3.2070   -3.5810    0.0000 C   0  0  0  0  0  0  0  0  0  0  0  0
    4.0730   -3.0800    0.0000 C   0  0  0  0  0  0  0  0  0  0  0  0
    4.9390   -3.5790    0.0000 C   0  0  0  0  0  0  0  0  0  0  0  0
    4.9400   -4.5790    0.0000 C   0  0  0  0  0  0  0  0  0  0  0  0
    4.0740   -5.0800    0.0000 C   0  0  0  0  0  0  0  0  0  0  0  0
    3.2080   -4.5810    0.0000 C   0  0  0  0  0  0  0  0  0  0  0  0
    2.3420   -5.0810    0.0000 C   0  0  0  0  0  0  0  0  0  0  0  0
    0.6060    0.9170    0.0000 C   0  0  0  0  0  0  0  0  0  0  0  0
   -0.2610    1.4160    0.0000 C   0  0  0  0  0  0  0  0  0  0  0  0
  1  2  1  0  0  0  0
  2  3  1  0  0  0  0
  3  4  1  0  0  0  0
  3  8  2  0  0  0  0
  4  5  2  0  0  0  0
  5  6  1  0  0  0  0
  6  7  2  0  0  0  0
  7  8  1  0  0  0  0
  8  9  1  0  0  0  0
  9 10  1  0  0  0  0
 10 11  2  0  0  0  0
 10 12  2  0  0  0  0
 10 13  1  0  0  0  0
 13 14  1  0  0  0  0
 13 30  2  0  0  0  0
 14 15  2  0  0  0  0
 15 16  1  0  0  0  0
 16 17  1  0  0  0  0
 16 29  2  0  0  0  0
 17 18  2  0  0  0  0
 18 19  1  0  0  0  0
 19 20  2  0  0  0  0
 19 21  1  0  0  0  0
 21 22  1  0  0  0  0
 22 23  1  0  0  0  0
 22 27  2  0  0  0  0
 23 24  2  0  0  0  0
 24 25  1  0  0  0  0
 25 26  2  0  0  0  0
 26 27  1  0  0  0  0
 27 28  1  0  0  0  0
 29 30  1  0  0  0  0
M  END
> <name>
decoy69

> <label>
0

$$$$
decoy70
  -OEChem-10082421392D

 30 32  0     0  0  0  0  0  0999 V2000
   -3.4770   -6.4260    0.0000 C   0  0  0  0  0  0  0  0  0  0  0  0
   -3.4750   -5.4260    0.0000 O   0  0  0  0  0  0  0  0  0  0  0  0
   -2.6080   -4.9280    0.0000 C   0  0  0  0  0  0  0  0  0  0  0  0
   -2.6060   -3.9280    0.0000 C   0  0  0  0  0  0  0  0  0  0  0  0
   -1.7390   -3.4300    0.0000 C   0  0  0  0  0  0  0  0  0  0  0  0
   -0.8740   -3.9320    0.0000 C   0  0  0  0  0  0  0  0  0  0  0  0
   -0.0070   -3.4330    0.0000 N   0  0  0  0  0  0  0  0  0  0  0  0
   -0.0050   -2.4330    0.0000 S   0  0  0  0  0  0  0  0  0  0  0  0
    0.9950   -2.4350    0.0000 O   0  0  0  0  0  0  0  0  0  0  0  0
   -1.0050   -2.4310    0.0000 O   0  0  0  0  0  0  0  0  0  0  0  0
   -0.0030   -1.4330    0.0000 C   0  0  0  0  0  0  0  0  0  0  0  0
    0.8640   -0.9350    0.0000 C   0  0  0  0  0  0  0  0  0  0  0  0
    0.8660    0.0650    0.0000 C   0  0  0  0  0  0  0  0  0  0  0  0
    0.0010    0.5670    0.0000 C   0  0  0  0  0  0  0  0  0  0  0  0
    0.0030    1.5670    0.0000 C   0  0  0  0  0  0  0  0  0  0  0  0
    0.8700    2.0650    0.0000 C   0  0  0  0  0  0  0  0  0  0  0  0
    0.8720    3.0650    0.0000 C   0  0  0  0  0  0  0  0  0  0  0  0
    0.0070    3.5670    0.0000 O   0  0  0  0  0  0  0  0  0  0  0  0
    1.7390    3.5630    0.0000 N   0  0  0  0  0  0  0  0  0  0  0  0
    1.7410    4.5630    0.0000 C   0  0  0  0  0  0  0  0  0  0  0  0
    0.8760    5.0650    0.0000 C   0  0  0  0  0  0  0  0  0  0  0  0
    0.8780    6.0650    0.0000 C   0  0  0  0  0  0  0  0  0  0  0  0
    1.7450    6.5630    0.0000 C   0  0  0  0  0  0  0  0  0  0  0  0
    2.6100    6.0610    0.0000 C   0  0  0  0  0  0  0  0  0  0  0  0
    2.6080    5.0610    0.0000 C   0  0  0  0  0  0  0  0  0  0  0  0
    3.4730    4.5600    0.0000 C   0  0  0  0  0  0  0  0  0  0  0  0
   -0.8660    0.0680    0.0000 C   0  0  0  0  0  0  0  0  0  0  0  0
   -0.8680   -0.9320    0.0000 C   0  0  0  0  0  0  0  0  0  0  0  0
   -0.8760   -4.9320    0.0000 C   0  0  0  0  0  0  0  0  0  0  0  0
   -1.7430   -5.4300    0.0000 C   0  0  0  0  0  0  0  0  0  0  0  0
  1  2  1  0  0  0  0
  2  3  1  0  0  0  0
  3  4  1  0  0  0  0
  3 30  2  0  0  0  0
  4  5  2  0  0  0  0
  5  6  1  0  0  0  0
  6  7  1  0  0  0  0
  6 29  2  0  0  0  0
  7  8  1  0  0  0  0
  8  9  2  0  0  0  0
  8 10  2  0  0  0  0
  8 11  1  0  0  0  0
 11 12  1  0  0  0  0
 11 28  2  0  0  0  0
 12 13  2  0  0  0  0
 13 14  1  0  0  0  0
 14 15  1  0  0  0  0
 14 27  2  0  0  0  0
 15 16  2  0  0  0  0
 16 17  1  0  0  0  0
 17 18  2  0  0  0  0
 17 19  1  0  0  0  0
 19 20  1  0  0  0  0
 20 21  1  0  0  0  0
 20 25  2  0  0  0  0
 21 22  2  0  0  0  0
 22 23  1  0  0  0  0
 23 24  2  0  0  0  0
 24 25  1  0  0  0  0
 25 26  1  0  0  0  0
 27 28  1  0  0  0  0
 29 30  1  0  0  0  0
M  END
> <name>
decoy70

> <label>
0

$$$$
decoy71
  -OEChem-10082421392D

 31 33  0     0  0  0  0  0  0999 V2000
    5.1390   -1.5520    0.0000 C   0  0  0  0  0  0  0  0  0  0  0  0
    4.2730   -2.0520    0.0000 O   0  0  0  0  0  0  0  0  0  0  0  0
    3.4070   -1.5510    0.0000 C   0  0  0  0  0  0  0  0  0  0  0  0
    2.5410   -2.0500    0.0000 C   0  0  0  0  0  0  0  0  0  0  0  0
    1.6750   -1.5500    0.0000 C   0  0  0  0  0  0  0  0  0  0  0  0
    1.6760   -0.5500    0.0000 C   0  0  0  0  0  0  0  0  0  0  0  0
    0.8100   -0.0490    0.0000 N   0  0  0  0  0  0  0  0  0  0  0  0
   -0.0560   -0.5480    0.0000 C   0  0  0  0  0  0  0  0  0  0  0  0
   -0.0570   -1.5480    0.0000 O   0  0  0  0  0  0  0  0  0  0  0  0
   -0.9220   -0.0480    0.0000 C   0  0  0  0  0  0  0  0  0  0  0  0
   -0.9210    0.9520    0.0000 C   0  0  0  0  0  0  0  0  0  0  0  0
   -0.0550    1.4520    0.0000 C   0  0  0  0  0  0  0  0  0  0  0  0
    0.8110    0.9510    0.0000 C   0  0  0  0  0  0  0  0  0  0  0  0
    1.6770    1.4500    0.0000 C   0  0  0  0  0  0  0  0  0  0  0  0
    1.6780    2.4500    0.0000 C   0  0  0  0  0  0  0  0  0  0  0  0
    0.8120    2.9510    0.0000 C   0  0  0  0  0  0  0  0  0  0  0  0
   -0.0540    2.4520    0.0000 C   0  0  0  0  0  0  0  0  0  0  0  0
   -0.9200    2.9520    0.0000 F   0  0  0  0  0  0  0  0  0  0  0  0
   -1.7880   -0.5470    0.0000 N   0  0  0  0  0  0  0  0  0  0  0  0
   -2.6540   -0.0460    0.0000 C   0  0  0  0  0  0  0  0  0  0  0  0
   -2.6530    0.9540    0.0000 O   0  0  0  0  0  0  0  0  0  0  0  0
   -3.5200   -0.5460    0.0000 C   0  0  0  0  0  0  0  0  0  0  0  0
   -4.3860   -0.0450    0.0000 C   0  0  0  0  0  0  0  0  0  0  0  0
   -5.2520   -0.5440    0.0000 C   0  0  0  0  0  0  0  0  0  0  0  0
   -5.2530   -1.5440    0.0000 C   0  0  0  0  0  0  0  0  0  0  0  0
   -4.3870   -2.0450    0.0000 C   0  0  0  0  0  0  0  0  0  0  0  0
   -3.5210   -1.5460    0.0000 C   0  0  0  0  0  0  0  0  0  0  0  0
    2.5420   -0.0500    0.0000 C   0  0  0  0  0  0  0  0  0  0  0  0
    2.5430    0.9500    0.0000 O   0  0  0  0  0  0  0  0  0  0  0  0
    3.4090    1.4490    0.0000 C   0  0  0  0  0  0  0  0  0  0  0  0
    3.4080   -0.5510    0.0000 C   0  0  0  0  0  0  0  0  0  0  0  0
  1  2  1  0  0  0  0
  2  3  1  0  0  0  0
  3  4  2  0  0  0  0
  3 31  1  0  0  0  0
  4  5  1  0  0  0  0
  5  6  2  0  0  0  0
  6  7  1  0  0  0  0
  6 28  1  0  0  0  0
  7  8  1  0  0  0  0
  8  9  2  0  0  0  0
  8 10  1  0  0  0  0
 10 11  2  0  0  0  0
 10 19  1  0  0  0  0
 11 12  1  0  0  0  0
 12 13  1  0  0  0  0
 12 17  2  0  0  0  0
 13 14  2  0  0  0  0
 14 15  1  0  0  0  0
 15 16  2  0  0  0  0
 16 17  1  0  0  0  0
 17 18  1  0  0  0  0
 19 20  1  0  0  0  0
 20 21  2  0  0  0  0
 20 22  1  0  0  0  0
 22 23  1  0  0  0  0
 22 27  2  0  0  0  0
 23 24  2  0  0  0  0
 24 25  1  0  0  0  0
 25 26  2  0  0  0  0
 26 27  1  0  0  0  0
 28 29  1  0  0  0  0
 28 31  2  0  0  0  0
 29 30  1  0  0  0  0
M  END
> <name>
decoy71

> <label>
0

$$$$
decoy72
  -OEChem-10082421392D

 31 33  0     0  0  0  0  0  0999 V2000
    5.4220    0.5720    0.0000 C   0  0  0  0  0  0  0  0  0  0  0  0
    4.4280    0.6800    0.0000 C   0  0  0  0  0  0  0  0  0  0  0  0
    3.9320    1.5480    0.0000 C   0  0  0  0  0  0  0  0  0  0  0  0
    2.9520    1.3430    0.0000 C   0  0  0  0  0  0  0  0  0  0  0  0
    2.8440    0.3490    0.0000 C   0  0  0  0  0  0  0  0  0  0  0  0
    1.9760   -0.1480    0.0000 C   0  0  0  0  0  0  0  0  0  0  0  0
    1.1120    0.3550    0.0000 N   0  0  0  0  0  0  0  0  0  0  0  0
    0.2440   -0.1410    0.0000 N   0  0  0  0  0  0  0  0  0  0  0  0
   -0.6200    0.3620    0.0000 C   0  0  0  0  0  0  0  0  0  0  0  0
   -0.6160    1.3620    0.0000 O   0  0  0  0  0  0  0  0  0  0  0  0
   -1.4880   -0.1350    0.0000 C   0  0  0  0  0  0  0  0  0  0  0  0
   -1.4910   -1.1350    0.0000 C   0  0  0  0  0  0  0  0  0  0  0  0
   -0.6270   -1.6380    0.0000 C   0  0  0  0  0  0  0  0  0  0  0  0
    0.2410   -1.1410    0.0000 C   0  0  0  0  0  0  0  0  0  0  0  0
    1.1050   -1.6450    0.0000 C   0  0  0  0  0  0  0  0  0  0  0  0
    1.1020   -2.6440    0.0000 C   0  0  0  0  0  0  0  0  0  0  0  0
    1.9660   -3.1480    0.0000 N   0  0  0  0  0  0  0  0  0  0  0  0
    1.9620   -4.1480    0.0000 C   0  0  0  0  0  0  0  0  0  0  0  0
    2.8340   -2.6510    0.0000 C   0  0  0  0  0  0  0  0  0  0  0  0
    0.2340   -3.1410    0.0000 C   0  0  0  0  0  0  0  0  0  0  0  0
   -0.6300   -2.6380    0.0000 C   0  0  0  0  0  0  0  0  0  0  0  0
   -2.3520    0.3680    0.0000 N   0  0  0  0  0  0  0  0  0  0  0  0
   -2.3480    1.3680    0.0000 C   0  0  0  0  0  0  0  0  0  0  0  0
   -1.4800    1.8650    0.0000 O   0  0  0  0  0  0  0  0  0  0  0  0
   -3.2120    1.8710    0.0000 C   0  0  0  0  0  0  0  0  0  0  0  0
   -4.0800    1.3740    0.0000 C   0  0  0  0  0  0  0  0  0  0  0  0
   -4.9440    1.8770    0.0000 C   0  0  0  0  0  0  0  0  0  0  0  0
   -4.9410    2.8770    0.0000 C   0  0  0  0  0  0  0  0  0  0  0  0
   -4.0730    3.3740    0.0000 C   0  0  0  0  0  0  0  0  0  0  0  0
   -3.2090    2.8710    0.0000 C   0  0  0  0  0  0  0  0  0  0  0  0
    3.7560   -0.0610    0.0000 O   0  0  0  0  0  0  0  0  0  0  0  0
  1  2  1  0  0  0  0
  2  3  2  0  0  0  0
  2 31  1  0  0  0  0
  3  4  1  0  0  0  0
  4  5  2  0  0  0  0
  5  6  1  0  0  0  0
  5 31  1  0  0  0  0
  6  7  2  0  0  0  0
  7  8  1  0  0  0  0
  8  9  1  0  0  0  0
  9 10  2  0  0  0  0
  9 11  1  0  0  0  0
 11 12  2  0  0  0  0
 11 22  1  0  0  0  0
 12 13  1  0  0  0  0
 13 14  1  0  0  0  0
 13 21  2  0  0  0  0
 14 15  2  0  0  0  0
 15 16  1  0  0  0  0
 16 17  1  0  0  0  0
 16 20  2  0  0  0  0
 17 18  1  0  0  0  0
 17 19  1  0  0  0  0
 20 21  1  0  0  0  0
 22 23  1  0  0  0  0
 23 24  2  0  0  0  0
 23 25  1  0  0  0  0
 25 26  1  0  0  0  0
 25 30  2  0  0  0  0
 26 27  2  0  0  0  0
 27 28  1  0  0  0  0
 28 29  2  0  0  0  0
 29 30  1  0  0  0  0
M  END
> <name>
decoy72

> <label>
0

$$$$
decoy73
  -OEChem-10082421392D

 30 32  0     0  0  0  0  0  0999 V2000
    2.4200    3.6690    0.0000 C   0  0  0  0  0  0  0  0  0  0  0  0
    2.4200    2.6690    0.0000 N   0  0  0  0  0  0  0  0  0  0  0  0
    3.2850    2.1690    0.0000 C   0  0  0  0  0  0  0  0  0  0  0  0
    1.5540    2.1710    0.0000 C   0  0  0  0  0  0  0  0  0  0  0  0
    0.6870    2.6690    0.0000 C   0  0  0  0  0  0  0  0  0  0  0  0
   -0.1790    2.1720    0.0000 C   0  0  0  0  0  0  0  0  0  0  0  0
   -0.1800    1.1700    0.0000 C   0  0  0  0  0  0  0  0  0  0  0  0
   -1.0460    0.6710    0.0000 C   0  0  0  0  0  0  0  0  0  0  0  0
   -1.0470   -0.3280    0.0000 C   0  0  0  0  0  0  0  0  0  0  0  0
   -1.9130   -0.8280    0.0000 N   0  0  0  0  0  0  0  0  0  0  0  0
   -2.7790   -0.3270    0.0000 C   0  0  0  0  0  0  0  0  0  0  0  0
   -2.7780    0.6730    0.0000 O   0  0  0  0  0  0  0  0  0  0  0  0
   -3.6450   -0.8250    0.0000 C   0  0  0  0  0  0  0  0  0  0  0  0
   -3.6460   -1.8270    0.0000 C   0  0  0  0  0  0  0  0  0  0  0  0
   -4.5130   -2.3250    0.0000 C   0  0  0  0  0  0  0  0  0  0  0  0
   -5.3790   -1.8260    0.0000 C   0  0  0  0  0  0  0  0  0  0  0  0
   -5.3780   -0.8240    0.0000 C   0  0  0  0  0  0  0  0  0  0  0  0
   -4.5110   -0.3260    0.0000 C   0  0  0  0  0  0  0  0  0  0  0  0
   -0.1810   -0.8290    0.0000 C   0  0  0  0  0  0  0  0  0  0  0  0
   -0.1820   -1.8290    0.0000 O   0  0  0  0  0  0  0  0  0  0  0  0
    0.6850   -0.3300    0.0000 N   0  0  0  0  0  0  0  0  0  0  0  0
    1.5510   -0.8300    0.0000 N   0  0  0  0  0  0  0  0  0  0  0  0
    2.4180   -0.3310    0.0000 C   0  0  0  0  0  0  0  0  0  0  0  0
    3.2820   -0.8310    0.0000 C   0  0  0  0  0  0  0  0  0  0  0  0
    3.3870   -1.8260    0.0000 C   0  0  0  0  0  0  0  0  0  0  0  0
    4.3640   -2.0350    0.0000 C   0  0  0  0  0  0  0  0  0  0  0  0
    4.8660   -1.1690    0.0000 C   0  0  0  0  0  0  0  0  0  0  0  0
    4.1970   -0.4260    0.0000 O   0  0  0  0  0  0  0  0  0  0  0  0
    0.6860    0.6710    0.0000 C   0  0  0  0  0  0  0  0  0  0  0  0
    1.5530    1.1680    0.0000 C   0  0  0  0  0  0  0  0  0  0  0  0
  1  2  1  0  0  0  0
  2  3  1  0  0  0  0
  2  4  1  0  0  0  0
  4  5  1  0  0  0  0
  4 30  2  0  0  0  0
  5  6  2  0  0  0  0
  6  7  1  0  0  0  0
  7  8  1  0  0  0  0
  7 29  2  0  0  0  0
  8  9  2  0  0  0  0
  9 10  1  0  0  0  0
  9 19  1  0  0  0  0
 10 11  1  0  0  0  0
 11 12  2  0  0  0  0
 11 13  1  0  0  0  0
 13 14  1  0  0  0  0
 13 18  2  0  0  0  0
 14 15  2  0  0  0  0
 15 16  1  0  0  0  0
 16 17  2  0  0  0  0
 17 18  1  0  0  0  0
 19 20  2  0  0  0  0
 19 21  1  0  0  0  0
 21 22  1  0  0  0  0
 22 23  2  0  0  0  0
 23 24  1  0  0  0  0
 24 25  2  0  0  0  0
 24 28  1  0  0  0  0
 25 26  1  0  0  0  0
 26 27  2  0  0  0  0
 27 28  1  0  0  0  0
 29 30  1  0  0  0  0
M  END
> <name>
decoy73

> <label>
0

$$$$
decoy74
  -OEChem-10082421392D

 30 32  0     0  0  0  0  0  0999 V2000
    0.9500   -2.7510    0.0000 C   0  0  0  0  0  0  0  0  0  0  0  0
    0.9510   -1.7510    0.0000 O   0  0  0  0  0  0  0  0  0  0  0  0
    1.8180   -1.2510    0.0000 C   0  0  0  0  0  0  0  0  0  0  0  0
    2.6830   -1.7520    0.0000 C   0  0  0  0  0  0  0  0  0  0  0  0
    3.5500   -1.2530    0.0000 C   0  0  0  0  0  0  0  0  0  0  0  0
    4.4150   -1.7540    0.0000 Cl  0  0  0  0  0  0  0  0  0  0  0  0
    3.5500   -0.2530    0.0000 C   0  0  0  0  0  0  0  0  0  0  0  0
    4.4170    0.2460    0.0000 C   0  0  0  0  0  0  0  0  0  0  0  0
    2.6850    0.2480    0.0000 C   0  0  0  0  0  0  0  0  0  0  0  0
    1.8180   -0.2510    0.0000 C   0  0  0  0  0  0  0  0  0  0  0  0
    0.9530    0.2490    0.0000 N   0  0  0  0  0  0  0  0  0  0  0  0
    0.0860   -0.2500    0.0000 C   0  0  0  0  0  0  0  0  0  0  0  0
    0.0860   -1.2500    0.0000 O   0  0  0  0  0  0  0  0  0  0  0  0
   -0.7790    0.2510    0.0000 C   0  0  0  0  0  0  0  0  0  0  0  0
   -0.7780    1.2510    0.0000 C   0  0  0  0  0  0  0  0  0  0  0  0
    0.0880    1.7500    0.0000 C   0  0  0  0  0  0  0  0  0  0  0  0
    0.9540    1.2490    0.0000 C   0  0  0  0  0  0  0  0  0  0  0  0
    1.8200    1.7490    0.0000 C   0  0  0  0  0  0  0  0  0  0  0  0
    1.8210    2.7490    0.0000 C   0  0  0  0  0  0  0  0  0  0  0  0
    0.9550    3.2490    0.0000 C   0  0  0  0  0  0  0  0  0  0  0  0
    0.0890    2.7500    0.0000 N   0  0  0  0  0  0  0  0  0  0  0  0
   -1.6460   -0.2490    0.0000 N   0  0  0  0  0  0  0  0  0  0  0  0
   -2.5110    0.2520    0.0000 C   0  0  0  0  0  0  0  0  0  0  0  0
   -2.5100    1.2520    0.0000 O   0  0  0  0  0  0  0  0  0  0  0  0
   -3.3780   -0.2470    0.0000 C   0  0  0  0  0  0  0  0  0  0  0  0
   -3.3780   -1.2470    0.0000 C   0  0  0  0  0  0  0  0  0  0  0  0
   -4.2450   -1.7470    0.0000 C   0  0  0  0  0  0  0  0  0  0  0  0
   -5.1100   -1.2460    0.0000 C   0  0  0  0  0  0  0  0  0  0  0  0
   -5.1100   -0.2460    0.0000 C   0  0  0  0  0  0  0  0  0  0  0  0
   -4.2430    0.2530    0.0000 C   0  0  0  0  0  0  0  0  0  0  0  0
  1  2  1  0  0  0  0
  2  3  1  0  0  0  0
  3  4  1  0  0  0  0
  3 10  2  0  0  0  0
  4  5  2  0  0  0  0
  5  6  1  0  0  0  0
  5  7  1  0  0  0  0
  7  8  1  0  0  0  0
  7  9  2  0  0  0  0
  9 10  1  0  0  0  0
 10 11  1  0  0  0  0
 11 12  1  0  0  0  0
 12 13  2  0  0  0  0
 12 14  1  0  0  0  0
 14 15  2  0  0  0  0
 14 22  1  0  0  0  0
 15 16  1  0  0  0  0
 16 17  1  0  0  0  0
 16 21  2  0  0  0  0
 17 18  2  0  0  0  0
 18 19  1  0  0  0  0
 19 20  2  0  0  0  0
 20 21  1  0  0  0  0
 22 23  1  0  0  0  0
 23 24  2  0  0  0  0
 23 25  1  0  0  0  0
 25 26  1  0  0  0  0
 25 30  2  0  0  0  0
 26 27  2  0  0  0  0
 27 28  1  0  0  0  0
 28 29  2  0  0  0  0
 29 30  1  0  0  0  0
M  END
> <name>
decoy74

> <label>
0

$$$$
decoy75
  -OEChem-10082421392D

 30 32  0     0  0  0  0  0  0999 V2000
    0.9500   -2.7510    0.0000 C   0  0  0  0  0  0  0  0  0  0  0  0
    0.9510   -1.7510    0.0000 O   0  0  0  0  0  0  0  0  0  0  0  0
    1.8180   -1.2510    0.0000 C   0  0  0  0  0  0  0  0  0  0  0  0
    2.6830   -1.7520    0.0000 C   0  0  0  0  0  0  0  0  0  0  0  0
    3.5500   -1.2530    0.0000 C   0  0  0  0  0  0  0  0  0  0  0  0
    4.4150   -1.7540    0.0000 Cl  0  0  0  0  0  0  0  0  0  0  0  0
    3.5500   -0.2530    0.0000 C   0  0  0  0  0  0  0  0  0  0  0  0
    4.4170    0.2460    0.0000 C   0  0  0  0  0  0  0  0  0  0  0  0
    2.6850    0.2480    0.0000 C   0  0  0  0  0  0  0  0  0  0  0  0
    1.8180   -0.2510    0.0000 C   0  0  0  0  0  0  0  0  0  0  0  0
    0.9530    0.2490    0.0000 N   0  0  0  0  0  0  0  0  0  0  0  0
    0.0860   -0.2500    0.0000 C   0  0  0  0  0  0  0  0  0  0  0  0
    0.0860   -1.2500    0.0000 O   0  0  0  0  0  0  0  0  0  0  0  0
   -0.7790    0.2510    0.0000 C   0  0  0  0  0  0  0  0  0  0  0  0
   -0.7780    1.2510    0.0000 C   0  0  0  0  0  0  0  0  0  0  0  0
    0.0880    1.7500    0.0000 C   0  0  0  0  0  0  0  0  0  0  0  0
    0.0890    2.7500    0.0000 C   0  0  0  0  0  0  0  0  0  0  0  0
    0.9550    3.2490    0.0000 C   0  0  0  0  0  0  0  0  0  0  0  0
    1.8210    2.7490    0.0000 C   0  0  0  0  0  0  0  0  0  0  0  0
    1.8200    1.7490    0.0000 N   0  0  0  0  0  0  0  0  0  0  0  0
    0.9540    1.2490    0.0000 C   0  0  0  0  0  0  0  0  0  0  0  0
   -1.6460   -0.2490    0.0000 N   0  0  0  0  0  0  0  0  0  0  0  0
   -2.5110    0.2520    0.0000 C   0  0  0  0  0  0  0  0  0  0  0  0
   -2.5100    1.2520    0.0000 O   0  0  0  0  0  0  0  0  0  0  0  0
   -3.3780   -0.2470    0.0000 C   0  0  0  0  0  0  0  0  0  0  0  0
   -3.3780   -1.2470    0.0000 C   0  0  0  0  0  0  0  0  0  0  0  0
   -4.2450   -1.7470    0.0000 C   0  0  0  0  0  0  0  0  0  0  0  0
   -5.1100   -1.2460    0.0000 C   0  0  0  0  0  0  0  0  0  0  0  0
   -5.1100   -0.2460    0.0000 C   0  0  0  0  0  0  0  0  0  0  0  0
   -4.2430    0.2530    0.0000 C   0  0  0  0  0  0  0  0  0  0  0  0
  1  2  1  0  0  0  0
  2  3  1  0  0  0  0
  3  4  1  0  0  0  0
  3 10  2  0  0  0  0
  4  5  2  0  0  0  0
  5  6  1  0  0  0  0
  5  7  1  0  0  0  0
  7  8  1  0  0  0  0
  7  9  2  0  0  0  0
  9 10  1  0  0  0  0
 10 11  1  0  0  0  0
 11 12  1  0  0  0  0
 12 13  2  0  0  0  0
 12 14  1  0  0  0  0
 14 15  2  0  0  0  0
 14 22  1  0  0  0  0
 15 16  1  0  0  0  0
 16 17  1  0  0  0  0
 16 21  2  0  0  0  0
 17 18  2  0  0  0  0
 18 19  1  0  0  0  0
 19 20  2  0  0  0  0
 20 21  1  0  0  0  0
 22 23  1  0  0  0  0
 23 24  2  0  0  0  0
 23 25  1  0  0  0  0
 25 26  1  0  0  0  0
 25 30  2  0  0  0  0
 26 27  2  0  0  0  0
 27 28  1  0  0  0  0
 28 29  2  0  0  0  0
 29 30  1  0  0  0  0
M  END
> <name>
decoy75

> <label>
0

$$$$
decoy76
  -OEChem-10082421392D

 29 31  0     0  0  0  0  0  0999 V2000
    1.0050   -2.6610    0.0000 C   0  0  0  0  0  0  0  0  0  0  0  0
    1.0060   -1.6610    0.0000 O   0  0  0  0  0  0  0  0  0  0  0  0
    1.8720   -1.1620    0.0000 C   0  0  0  0  0  0  0  0  0  0  0  0
    2.7380   -1.6610    0.0000 C   0  0  0  0  0  0  0  0  0  0  0  0
    3.6050   -1.1640    0.0000 C   0  0  0  0  0  0  0  0  0  0  0  0
    4.4700   -1.6640    0.0000 Cl  0  0  0  0  0  0  0  0  0  0  0  0
    3.6060   -0.1610    0.0000 C   0  0  0  0  0  0  0  0  0  0  0  0
    4.4720    0.3370    0.0000 C   0  0  0  0  0  0  0  0  0  0  0  0
    2.7400    0.3370    0.0000 C   0  0  0  0  0  0  0  0  0  0  0  0
    1.8730   -0.1600    0.0000 C   0  0  0  0  0  0  0  0  0  0  0  0
    1.0080    0.3400    0.0000 N   0  0  0  0  0  0  0  0  0  0  0  0
    0.1420   -0.1600    0.0000 C   0  0  0  0  0  0  0  0  0  0  0  0
    0.1410   -1.1600    0.0000 O   0  0  0  0  0  0  0  0  0  0  0  0
   -0.7240    0.3410    0.0000 C   0  0  0  0  0  0  0  0  0  0  0  0
   -0.7230    1.3410    0.0000 C   0  0  0  0  0  0  0  0  0  0  0  0
    0.1430    1.8400    0.0000 C   0  0  0  0  0  0  0  0  0  0  0  0
    1.0570    1.4340    0.0000 C   0  0  0  0  0  0  0  0  0  0  0  0
    1.7260    2.1750    0.0000 C   0  0  0  0  0  0  0  0  0  0  0  0
    1.2270    3.0420    0.0000 C   0  0  0  0  0  0  0  0  0  0  0  0
    0.2490    2.8340    0.0000 O   0  0  0  0  0  0  0  0  0  0  0  0
   -1.5900   -0.1580    0.0000 N   0  0  0  0  0  0  0  0  0  0  0  0
   -2.4560    0.3430    0.0000 C   0  0  0  0  0  0  0  0  0  0  0  0
   -2.4550    1.3430    0.0000 O   0  0  0  0  0  0  0  0  0  0  0  0
   -3.3220   -0.1560    0.0000 C   0  0  0  0  0  0  0  0  0  0  0  0
   -3.3230   -1.1580    0.0000 C   0  0  0  0  0  0  0  0  0  0  0  0
   -4.1900   -1.6550    0.0000 C   0  0  0  0  0  0  0  0  0  0  0  0
   -5.0560   -1.1570    0.0000 C   0  0  0  0  0  0  0  0  0  0  0  0
   -5.0550   -0.1540    0.0000 C   0  0  0  0  0  0  0  0  0  0  0  0
   -4.1880    0.3430    0.0000 C   0  0  0  0  0  0  0  0  0  0  0  0
  1  2  1  0  0  0  0
  2  3  1  0  0  0  0
  3  4  1  0  0  0  0
  3 10  2  0  0  0  0
  4  5  2  0  0  0  0
  5  6  1  0  0  0  0
  5  7  1  0  0  0  0
  7  8  1  0  0  0  0
  7  9  2  0  0  0  0
  9 10  1  0  0  0  0
 10 11  1  0  0  0  0
 11 12  1  0  0  0  0
 12 13  2  0  0  0  0
 12 14  1  0  0  0  0
 14 15  2  0  0  0  0
 14 21  1  0  0  0  0
 15 16  1  0  0  0  0
 16 17  2  0  0  0  0
 16 20  1  0  0  0  0
 17 18  1  0  0  0  0
 18 19  2  0  0  0  0
 19 20  1  0  0  0  0
 21 22  1  0  0  0  0
 22 23  2  0  0  0  0
 22 24  1  0  0  0  0
 24 25  1  0  0  0  0
 24 29  2  0  0  0  0
 25 26  2  0  0  0  0
 26 27  1  0  0  0  0
 27 28  2  0  0  0  0
 28 29  1  0  0  0  0
M  END
> <name>
decoy76

> <label>
0

$$$$
decoy77
  -OEChem-10082421392D

 30 32  0     0  0  0  0  0  0999 V2000
    0.9500   -2.7510    0.0000 C   0  0  0  0  0  0  0  0  0  0  0  0
    0.9510   -1.7510    0.0000 O   0  0  0  0  0  0  0  0  0  0  0  0
    1.8180   -1.2510    0.0000 C   0  0  0  0  0  0  0  0  0  0  0  0
    2.6830   -1.7520    0.0000 C   0  0  0  0  0  0  0  0  0  0  0  0
    3.5500   -1.2530    0.0000 C   0  0  0  0  0  0  0  0  0  0  0  0
    4.4150   -1.7540    0.0000 Cl  0  0  0  0  0  0  0  0  0  0  0  0
    3.5500   -0.2530    0.0000 C   0  0  0  0  0  0  0  0  0  0  0  0
    4.4170    0.2460    0.0000 C   0  0  0  0  0  0  0  0  0  0  0  0
    2.6850    0.2480    0.0000 C   0  0  0  0  0  0  0  0  0  0  0  0
    1.8180   -0.2510    0.0000 C   0  0  0  0  0  0  0  0  0  0  0  0
    0.9530    0.2490    0.0000 N   0  0  0  0  0  0  0  0  0  0  0  0
    0.0860   -0.2500    0.0000 C   0  0  0  0  0  0  0  0  0  0  0  0
    0.0860   -1.2500    0.0000 O   0  0  0  0  0  0  0  0  0  0  0  0
   -0.7790    0.2510    0.0000 C   0  0  0  0  0  0  0  0  0  0  0  0
   -0.7780    1.2510    0.0000 C   0  0  0  0  0  0  0  0  0  0  0  0
    0.0880    1.7500    0.0000 C   0  0  0  0  0  0  0  0  0  0  0  0
    0.0890    2.7500    0.0000 C   0  0  0  0  0  0  0  0  0  0  0  0
    0.9550    3.2490    0.0000 C   0  0  0  0  0  0  0  0  0  0  0  0
    1.8210    2.7490    0.0000 N   0  0  0  0  0  0  0  0  0  0  0  0
    1.8200    1.7490    0.0000 C   0  0  0  0  0  0  0  0  0  0  0  0
    0.9540    1.2490    0.0000 C   0  0  0  0  0  0  0  0  0  0  0  0
   -1.6460   -0.2490    0.0000 N   0  0  0  0  0  0  0  0  0  0  0  0
   -2.5110    0.2520    0.0000 C   0  0  0  0  0  0  0  0  0  0  0  0
   -2.5100    1.2520    0.0000 O   0  0  0  0  0  0  0  0  0  0  0  0
   -3.3780   -0.2470    0.0000 C   0  0  0  0  0  0  0  0  0  0  0  0
   -3.3780   -1.2470    0.0000 C   0  0  0  0  0  0  0  0  0  0  0  0
   -4.2450   -1.7470    0.0000 C   0  0  0  0  0  0  0  0  0  0  0  0
   -5.1100   -1.2460    0.0000 C   0  0  0  0  0  0  0  0  0  0  0  0
   -5.1100   -0.2460    0.0000 C   0  0  0  0  0  0  0  0  0  0  0  0
   -4.2430    0.2530    0.0000 C   0  0  0  0  0  0  0  0  0  0  0  0
  1  2  1  0  0  0  0
  2  3  1  0  0  0  0
  3  4  1  0  0  0  0
  3 10  2  0  0  0  0
  4  5  2  0  0  0  0
  5  6  1  0  0  0  0
  5  7  1  0  0  0  0
  7  8  1  0  0  0  0
  7  9  2  0  0  0  0
  9 10  1  0  0  0  0
 10 11  1  0  0  0  0
 11 12  1  0  0  0  0
 12 13  2  0  0  0  0
 12 14  1  0  0  0  0
 14 15  2  0  0  0  0
 14 22  1  0  0  0  0
 15 16  1  0  0  0  0
 16 17  2  0  0  0  0
 16 21  1  0  0  0  0
 17 18  1  0  0  0  0
 18 19  2  0  0  0  0
 19 20  1  0  0  0  0
 20 21  2  0  0  0  0
 22 23  1  0  0  0  0
 23 24  2  0  0  0  0
 23 25  1  0  0  0  0
 25 26  1  0  0  0  0
 25 30  2  0  0  0  0
 26 27  2  0  0  0  0
 27 28  1  0  0  0  0
 28 29  2  0  0  0  0
 29 30  1  0  0  0  0
M  END
> <name>
decoy77

> <label>
0

$$$$
decoy78
  -OEChem-10082421392D

 31 33  0     0  0  0  0  0  0999 V2000
    4.1650   -2.7550    0.0000 C   0  0  0  0  0  0  0  0  0  0  0  0
    3.2980   -2.2550    0.0000 C   0  0  0  0  0  0  0  0  0  0  0  0
    3.2970   -1.2550    0.0000 O   0  0  0  0  0  0  0  0  0  0  0  0
    2.4330   -2.7560    0.0000 O   0  0  0  0  0  0  0  0  0  0  0  0
    1.5660   -2.2570    0.0000 C   0  0  0  0  0  0  0  0  0  0  0  0
    1.5660   -1.2570    0.0000 C   0  0  0  0  0  0  0  0  0  0  0  0
    0.6990   -0.7580    0.0000 C   0  0  0  0  0  0  0  0  0  0  0  0
   -0.1670   -1.2580    0.0000 C   0  0  0  0  0  0  0  0  0  0  0  0
   -1.0330   -0.7590    0.0000 C   0  0  0  0  0  0  0  0  0  0  0  0
   -1.0340    0.2410    0.0000 C   0  0  0  0  0  0  0  0  0  0  0  0
   -1.9000    0.7400    0.0000 N   0  0  0  0  0  0  0  0  0  0  0  0
   -2.7660    0.2400    0.0000 C   0  0  0  0  0  0  0  0  0  0  0  0
   -2.7650   -0.7600    0.0000 O   0  0  0  0  0  0  0  0  0  0  0  0
   -3.6320    0.7390    0.0000 C   0  0  0  0  0  0  0  0  0  0  0  0
   -4.4980    0.2380    0.0000 C   0  0  0  0  0  0  0  0  0  0  0  0
   -5.3640    0.7380    0.0000 C   0  0  0  0  0  0  0  0  0  0  0  0
   -5.3650    1.7380    0.0000 C   0  0  0  0  0  0  0  0  0  0  0  0
   -4.4990    2.2380    0.0000 C   0  0  0  0  0  0  0  0  0  0  0  0
   -3.6330    1.7390    0.0000 C   0  0  0  0  0  0  0  0  0  0  0  0
   -0.1680    0.7420    0.0000 C   0  0  0  0  0  0  0  0  0  0  0  0
   -0.1690    1.7420    0.0000 O   0  0  0  0  0  0  0  0  0  0  0  0
    0.6980    0.2420    0.0000 N   0  0  0  0  0  0  0  0  0  0  0  0
    1.5640    0.7430    0.0000 C   0  0  0  0  0  0  0  0  0  0  0  0
    1.5630    1.7430    0.0000 C   0  0  0  0  0  0  0  0  0  0  0  0
    2.4290    2.2440    0.0000 C   0  0  0  0  0  0  0  0  0  0  0  0
    3.2950    1.7450    0.0000 C   0  0  0  0  0  0  0  0  0  0  0  0
    4.1610    2.2450    0.0000 C   0  0  0  0  0  0  0  0  0  0  0  0
    3.2960    0.7450    0.0000 C   0  0  0  0  0  0  0  0  0  0  0  0
    2.4300    0.2440    0.0000 C   0  0  0  0  0  0  0  0  0  0  0  0
   -0.1660   -2.2580    0.0000 C   0  0  0  0  0  0  0  0  0  0  0  0
    0.7010   -2.7570    0.0000 C   0  0  0  0  0  0  0  0  0  0  0  0
  1  2  1  0  0  0  0
  2  3  2  0  0  0  0
  2  4  1  0  0  0  0
  4  5  1  0  0  0  0
  5  6  1  0  0  0  0
  5 31  2  0  0  0  0
  6  7  2  0  0  0  0
  7  8  1  0  0  0  0
  8  9  1  0  0  0  0
  8 30  2  0  0  0  0
  9 10  2  0  0  0  0
 10 11  1  0  0  0  0
 10 20  1  0  0  0  0
 11 12  1  0  0  0  0
 12 13  2  0  0  0  0
 12 14  1  0  0  0  0
 14 15  1  0  0  0  0
 14 19  2  0  0  0  0
 15 16  2  0  0  0  0
 16 17  1  0  0  0  0
 17 18  2  0  0  0  0
 18 19  1  0  0  0  0
 20 21  2  0  0  0  0
 20 22  1  0  0  0  0
 22 23  1  0  0  0  0
 23 24  1  0  0  0  0
 23 29  2  0  0  0  0
 24 25  2  0  0  0  0
 25 26  1  0  0  0  0
 26 27  1  0  0  0  0
 26 28  2  0  0  0  0
 28 29  1  0  0  0  0
 30 31  1  0  0  0  0
M  END
> <name>
decoy78

> <label>
0

$$$$
decoy79
  -OEChem-10082421392D

 30 32  0     0  0  0  0  0  0999 V2000
    2.6920    3.5110    0.0000 C   0  0  0  0  0  0  0  0  0  0  0  0
    2.6900    2.5110    0.0000 O   0  0  0  0  0  0  0  0  0  0  0  0
    1.8230    2.0130    0.0000 C   0  0  0  0  0  0  0  0  0  0  0  0
    0.9580    2.5150    0.0000 C   0  0  0  0  0  0  0  0  0  0  0  0
    0.0910    2.0170    0.0000 C   0  0  0  0  0  0  0  0  0  0  0  0
    0.0890    1.0160    0.0000 C   0  0  0  0  0  0  0  0  0  0  0  0
   -0.7780    0.5180    0.0000 N   0  0  0  0  0  0  0  0  0  0  0  0
   -1.6430    1.0200    0.0000 C   0  0  0  0  0  0  0  0  0  0  0  0
   -1.6410    2.0200    0.0000 O   0  0  0  0  0  0  0  0  0  0  0  0
   -2.5100    0.5220    0.0000 C   0  0  0  0  0  0  0  0  0  0  0  0
   -3.3750    1.0240    0.0000 C   0  0  0  0  0  0  0  0  0  0  0  0
   -4.2420    0.5250    0.0000 C   0  0  0  0  0  0  0  0  0  0  0  0
   -5.1080    1.0270    0.0000 C   0  0  0  0  0  0  0  0  0  0  0  0
   -5.9740    0.5290    0.0000 C   0  0  0  0  0  0  0  0  0  0  0  0
   -5.9760   -0.4710    0.0000 C   0  0  0  0  0  0  0  0  0  0  0  0
   -5.1120   -0.9730    0.0000 C   0  0  0  0  0  0  0  0  0  0  0  0
   -4.2440   -0.4750    0.0000 C   0  0  0  0  0  0  0  0  0  0  0  0
    0.9540    0.5150    0.0000 C   0  0  0  0  0  0  0  0  0  0  0  0
    1.8210    1.0130    0.0000 C   0  0  0  0  0  0  0  0  0  0  0  0
    2.6860    0.5110    0.0000 N   0  0  0  0  0  0  0  0  0  0  0  0
    2.6840   -0.4890    0.0000 S   0  0  0  0  0  0  0  0  0  0  0  0
    1.6840   -0.4870    0.0000 O   0  0  0  0  0  0  0  0  0  0  0  0
    3.6840   -0.4910    0.0000 O   0  0  0  0  0  0  0  0  0  0  0  0
    2.6820   -1.4880    0.0000 C   0  0  0  0  0  0  0  0  0  0  0  0
    1.8150   -1.9870    0.0000 C   0  0  0  0  0  0  0  0  0  0  0  0
    1.8130   -2.9870    0.0000 C   0  0  0  0  0  0  0  0  0  0  0  0
    2.6780   -3.4890    0.0000 C   0  0  0  0  0  0  0  0  0  0  0  0
    2.6760   -4.4880    0.0000 F   0  0  0  0  0  0  0  0  0  0  0  0
    3.5450   -2.9900    0.0000 C   0  0  0  0  0  0  0  0  0  0  0  0
    3.5470   -1.9900    0.0000 C   0  0  0  0  0  0  0  0  0  0  0  0
  1  2  1  0  0  0  0
  2  3  1  0  0  0  0
  3  4  1  0  0  0  0
  3 19  2  0  0  0  0
  4  5  2  0  0  0  0
  5  6  1  0  0  0  0
  6  7  1  0  0  0  0
  6 18  2  0  0  0  0
  7  8  1  0  0  0  0
  8  9  2  0  0  0  0
  8 10  1  0  0  0  0
 10 11  2  0  0  0  0
 11 12  1  0  0  0  0
 12 13  1  0  0  0  0
 12 17  2  0  0  0  0
 13 14  2  0  0  0  0
 14 15  1  0  0  0  0
 15 16  2  0  0  0  0
 16 17  1  0  0  0  0
 18 19  1  0  0  0  0
 19 20  1  0  0  0  0
 20 21  1  0  0  0  0
 21 22  2  0  0  0  0
 21 23  2  0  0  0  0
 21 24  1  0  0  0  0
 24 25  1  0  0  0  0
 24 30  2  0  0  0  0
 25 26  2  0  0  0  0
 26 27  1  0  0  0  0
 27 28  1  0  0  0  0
 27 29  2  0  0  0  0
 29 30  1  0  0  0  0
M  END
> <name>
decoy79

> <label>
0

$$$$
decoy80
  -OEChem-10082421392D

 22 23  0     0  0  0  0  0  0999 V2000
    4.5290    2.7010    0.0000 C   0  0  0  0  0  0  0  0  0  0  0  0
    3.6630    2.2020    0.0000 C   0  0  0  0  0  0  0  0  0  0  0  0
    2.7970    2.7020    0.0000 O   0  0  0  0  0  0  0  0  0  0  0  0
    3.6620    1.2020    0.0000 N   0  0  0  0  0  0  0  0  0  0  0  0
    2.7950    0.7020    0.0000 C   0  0  0  0  0  0  0  0  0  0  0  0
    1.9300    1.2030    0.0000 C   0  0  0  0  0  0  0  0  0  0  0  0
    1.0630    0.7040    0.0000 C   0  0  0  0  0  0  0  0  0  0  0  0
    1.0630   -0.2960    0.0000 C   0  0  0  0  0  0  0  0  0  0  0  0
    0.1960   -0.7960    0.0000 N   0  0  0  0  0  0  0  0  0  0  0  0
   -0.6690   -0.2950    0.0000 C   0  0  0  0  0  0  0  0  0  0  0  0
   -0.6690    0.7050    0.0000 O   0  0  0  0  0  0  0  0  0  0  0  0
   -1.5360   -0.7940    0.0000 C   0  0  0  0  0  0  0  0  0  0  0  0
   -2.4010   -0.2940    0.0000 C   0  0  0  0  0  0  0  0  0  0  0  0
   -3.2680   -0.7930    0.0000 C   0  0  0  0  0  0  0  0  0  0  0  0
   -3.2680   -1.7930    0.0000 C   0  0  0  0  0  0  0  0  0  0  0  0
   -4.1350   -2.2920    0.0000 C   0  0  0  0  0  0  0  0  0  0  0  0
   -5.0010   -1.7910    0.0000 C   0  0  0  0  0  0  0  0  0  0  0  0
   -5.0000   -0.7910    0.0000 C   0  0  0  0  0  0  0  0  0  0  0  0
   -4.1330   -0.2920    0.0000 C   0  0  0  0  0  0  0  0  0  0  0  0
    1.9280   -0.7970    0.0000 C   0  0  0  0  0  0  0  0  0  0  0  0
    2.7950   -0.2980    0.0000 C   0  0  0  0  0  0  0  0  0  0  0  0
    3.6600   -0.7980    0.0000 Cl  0  0  0  0  0  0  0  0  0  0  0  0
  1  2  1  0  0  0  0
  2  3  2  0  0  0  0
  2  4  1  0  0  0  0
  4  5  1  0  0  0  0
  5  6  1  0  0  0  0
  5 21  2  0  0  0  0
  6  7  2  0  0  0  0
  7  8  1  0  0  0  0
  8  9  1  0  0  0  0
  8 20  2  0  0  0  0
  9 10  1  0  0  0  0
 10 11  2  0  0  0  0
 10 12  1  0  0  0  0
 12 13  2  0  0  0  0
 13 14  1  0  0  0  0
 14 15  1  0  0  0  0
 14 19  2  0  0  0  0
 15 16  2  0  0  0  0
 16 17  1  0  0  0  0
 17 18  2  0  0  0  0
 18 19  1  0  0  0  0
 20 21  1  0  0  0  0
 21 22  1  0  0  0  0
M  END
> <name>
decoy80

> <label>
0

$$$$
decoy81
  -OEChem-10082421392D

 30 32  0     0  0  0  0  0  0999 V2000
    5.7460   -1.6120    0.0000 C   0  0  0  0  0  0  0  0  0  0  0  0
    4.8790   -1.1130    0.0000 O   0  0  0  0  0  0  0  0  0  0  0  0
    4.0140   -1.6130    0.0000 C   0  0  0  0  0  0  0  0  0  0  0  0
    4.0150   -2.6140    0.0000 C   0  0  0  0  0  0  0  0  0  0  0  0
    3.1490   -3.1140    0.0000 C   0  0  0  0  0  0  0  0  0  0  0  0
    2.2820   -2.6150    0.0000 C   0  0  0  0  0  0  0  0  0  0  0  0
    2.2820   -1.6150    0.0000 C   0  0  0  0  0  0  0  0  0  0  0  0
    3.1470   -1.1140    0.0000 C   0  0  0  0  0  0  0  0  0  0  0  0
    3.1460   -0.1140    0.0000 N   0  0  0  0  0  0  0  0  0  0  0  0
    2.2800    0.3850    0.0000 S   0  0  0  0  0  0  0  0  0  0  0  0
    2.7800    1.2520    0.0000 O   0  0  0  0  0  0  0  0  0  0  0  0
    1.7810   -0.4810    0.0000 O   0  0  0  0  0  0  0  0  0  0  0  0
    1.4140    0.8840    0.0000 C   0  0  0  0  0  0  0  0  0  0  0  0
    0.5480    0.3840    0.0000 C   0  0  0  0  0  0  0  0  0  0  0  0
   -0.3180    0.8830    0.0000 C   0  0  0  0  0  0  0  0  0  0  0  0
   -1.1840    0.3820    0.0000 N   0  0  0  0  0  0  0  0  0  0  0  0
   -2.0500    0.8820    0.0000 C   0  0  0  0  0  0  0  0  0  0  0  0
   -2.0510    1.8820    0.0000 O   0  0  0  0  0  0  0  0  0  0  0  0
   -2.9160    0.3810    0.0000 C   0  0  0  0  0  0  0  0  0  0  0  0
   -3.7820    0.8800    0.0000 C   0  0  0  0  0  0  0  0  0  0  0  0
   -4.6480    0.3800    0.0000 C   0  0  0  0  0  0  0  0  0  0  0  0
   -5.5140    0.8790    0.0000 C   0  0  0  0  0  0  0  0  0  0  0  0
   -6.3800    0.3780    0.0000 C   0  0  0  0  0  0  0  0  0  0  0  0
   -6.3790   -0.6220    0.0000 C   0  0  0  0  0  0  0  0  0  0  0  0
   -5.5130   -1.1210    0.0000 C   0  0  0  0  0  0  0  0  0  0  0  0
   -4.6470   -0.6200    0.0000 C   0  0  0  0  0  0  0  0  0  0  0  0
   -0.3190    1.8830    0.0000 C   0  0  0  0  0  0  0  0  0  0  0  0
    0.5470    2.3840    0.0000 C   0  0  0  0  0  0  0  0  0  0  0  0
    1.4130    1.8840    0.0000 C   0  0  0  0  0  0  0  0  0  0  0  0
    2.2790    2.3850    0.0000 C   0  0  0  0  0  0  0  0  0  0  0  0
  1  2  1  0  0  0  0
  2  3  1  0  0  0  0
  3  4  1  0  0  0  0
  3  8  2  0  0  0  0
  4  5  2  0  0  0  0
  5  6  1  0  0  0  0
  6  7  2  0  0  0  0
  7  8  1  0  0  0  0
  8  9  1  0  0  0  0
  9 10  1  0  0  0  0
 10 11  2  0  0  0  0
 10 12  2  0  0  0  0
 10 13  1  0  0  0  0
 13 14  2  0  0  0  0
 13 29  1  0  0  0  0
 14 15  1  0  0  0  0
 15 16  1  0  0  0  0
 15 27  2  0  0  0  0
 16 17  1  0  0  0  0
 17 18  2  0  0  0  0
 17 19  1  0  0  0  0
 19 20  2  0  0  0  0
 20 21  1  0  0  0  0
 21 22  1  0  0  0  0
 21 26  2  0  0  0  0
 22 23  2  0  0  0  0
 23 24  1  0  0  0  0
 24 25  2  0  0  0  0
 25 26  1  0  0  0  0
 27 28  1  0  0  0  0
 28 29  2  0  0  0  0
 29 30  1  0  0  0  0
M  END
> <name>
decoy81

> <label>
0

$$$$
decoy82
  -OEChem-10082421392D

 30 32  0     0  0  0  0  0  0999 V2000
    4.1320   -4.4140    0.0000 C   0  0  0  0  0  0  0  0  0  0  0  0
    3.2650   -3.9140    0.0000 O   0  0  0  0  0  0  0  0  0  0  0  0
    3.2640   -2.9140    0.0000 C   0  0  0  0  0  0  0  0  0  0  0  0
    2.3980   -2.4150    0.0000 C   0  0  0  0  0  0  0  0  0  0  0  0
    2.3970   -1.4150    0.0000 C   0  0  0  0  0  0  0  0  0  0  0  0
    3.2630   -0.9140    0.0000 C   0  0  0  0  0  0  0  0  0  0  0  0
    3.2620    0.0860    0.0000 N   0  0  0  0  0  0  0  0  0  0  0  0
    2.3960    0.5850    0.0000 S   0  0  0  0  0  0  0  0  0  0  0  0
    2.8950    1.4520    0.0000 O   0  0  0  0  0  0  0  0  0  0  0  0
    1.8960   -0.2810    0.0000 O   0  0  0  0  0  0  0  0  0  0  0  0
    1.5290    1.0840    0.0000 C   0  0  0  0  0  0  0  0  0  0  0  0
    0.6640    0.5840    0.0000 C   0  0  0  0  0  0  0  0  0  0  0  0
   -0.2030    1.0830    0.0000 C   0  0  0  0  0  0  0  0  0  0  0  0
   -1.0680    0.5820    0.0000 N   0  0  0  0  0  0  0  0  0  0  0  0
   -1.9350    1.0820    0.0000 C   0  0  0  0  0  0  0  0  0  0  0  0
   -1.9360    2.0820    0.0000 O   0  0  0  0  0  0  0  0  0  0  0  0
   -2.8000    0.5810    0.0000 C   0  0  0  0  0  0  0  0  0  0  0  0
   -3.6670    1.0800    0.0000 C   0  0  0  0  0  0  0  0  0  0  0  0
   -4.5320    0.5800    0.0000 C   0  0  0  0  0  0  0  0  0  0  0  0
   -5.3990    1.0790    0.0000 C   0  0  0  0  0  0  0  0  0  0  0  0
   -6.2640    0.5780    0.0000 C   0  0  0  0  0  0  0  0  0  0  0  0
   -6.2640   -0.4220    0.0000 C   0  0  0  0  0  0  0  0  0  0  0  0
   -5.3970   -0.9210    0.0000 C   0  0  0  0  0  0  0  0  0  0  0  0
   -4.5320   -0.4200    0.0000 C   0  0  0  0  0  0  0  0  0  0  0  0
   -0.2040    2.0830    0.0000 C   0  0  0  0  0  0  0  0  0  0  0  0
    0.6620    2.5840    0.0000 C   0  0  0  0  0  0  0  0  0  0  0  0
    1.5280    2.0840    0.0000 C   0  0  0  0  0  0  0  0  0  0  0  0
    2.3940    2.5850    0.0000 C   0  0  0  0  0  0  0  0  0  0  0  0
    4.1290   -1.4130    0.0000 C   0  0  0  0  0  0  0  0  0  0  0  0
    4.1300   -2.4140    0.0000 C   0  0  0  0  0  0  0  0  0  0  0  0
  1  2  1  0  0  0  0
  2  3  1  0  0  0  0
  3  4  1  0  0  0  0
  3 30  2  0  0  0  0
  4  5  2  0  0  0  0
  5  6  1  0  0  0  0
  6  7  1  0  0  0  0
  6 29  2  0  0  0  0
  7  8  1  0  0  0  0
  8  9  2  0  0  0  0
  8 10  2  0  0  0  0
  8 11  1  0  0  0  0
 11 12  2  0  0  0  0
 11 27  1  0  0  0  0
 12 13  1  0  0  0  0
 13 14  1  0  0  0  0
 13 25  2  0  0  0  0
 14 15  1  0  0  0  0
 15 16  2  0  0  0  0
 15 17  1  0  0  0  0
 17 18  2  0  0  0  0
 18 19  1  0  0  0  0
 19 20  1  0  0  0  0
 19 24  2  0  0  0  0
 20 21  2  0  0  0  0
 21 22  1  0  0  0  0
 22 23  2  0  0  0  0
 23 24  1  0  0  0  0
 25 26  1  0  0  0  0
 26 27  2  0  0  0  0
 27 28  1  0  0  0  0
 29 30  1  0  0  0  0
M  END
> <name>
decoy82

> <label>
0

$$$$
decoy83
  -OEChem-10082421392D

 27 29  0     0  0  0  0  0  0999 V2000
    2.1180    1.4800    0.0000 O   0  0  0  0  0  0  0  0  0  0  0  0
    2.1170    0.4800    0.0000 C   0  0  0  0  0  0  0  0  0  0  0  0
    2.9830   -0.0210    0.0000 C   0  0  0  0  0  0  0  0  0  0  0  0
    3.8490    0.4780    0.0000 C   0  0  0  0  0  0  0  0  0  0  0  0
    4.7150   -0.0220    0.0000 C   0  0  0  0  0  0  0  0  0  0  0  0
    5.5810    0.4770    0.0000 C   0  0  0  0  0  0  0  0  0  0  0  0
    6.4470   -0.0240    0.0000 C   0  0  0  0  0  0  0  0  0  0  0  0
    6.4460   -1.0240    0.0000 C   0  0  0  0  0  0  0  0  0  0  0  0
    5.5800   -1.5230    0.0000 C   0  0  0  0  0  0  0  0  0  0  0  0
    4.7140   -1.0220    0.0000 C   0  0  0  0  0  0  0  0  0  0  0  0
    1.2510   -0.0200    0.0000 N   0  0  0  0  0  0  0  0  0  0  0  0
    0.3850    0.4810    0.0000 C   0  0  0  0  0  0  0  0  0  0  0  0
    0.3860    1.4810    0.0000 C   0  0  0  0  0  0  0  0  0  0  0  0
   -0.4800    1.9820    0.0000 C   0  0  0  0  0  0  0  0  0  0  0  0
   -1.3460    1.4820    0.0000 C   0  0  0  0  0  0  0  0  0  0  0  0
   -1.3470    0.4820    0.0000 C   0  0  0  0  0  0  0  0  0  0  0  0
   -2.2130   -0.0170    0.0000 C   0  0  0  0  0  0  0  0  0  0  0  0
   -2.2140   -1.0170    0.0000 O   0  0  0  0  0  0  0  0  0  0  0  0
   -3.0790    0.4840    0.0000 N   0  0  0  0  0  0  0  0  0  0  0  0
   -3.9450   -0.0150    0.0000 C   0  0  0  0  0  0  0  0  0  0  0  0
   -3.9460   -1.0160    0.0000 C   0  0  0  0  0  0  0  0  0  0  0  0
   -4.8120   -1.5150    0.0000 C   0  0  0  0  0  0  0  0  0  0  0  0
   -5.6780   -1.0140    0.0000 C   0  0  0  0  0  0  0  0  0  0  0  0
   -6.5440   -1.5130    0.0000 F   0  0  0  0  0  0  0  0  0  0  0  0
   -5.6770   -0.0140    0.0000 C   0  0  0  0  0  0  0  0  0  0  0  0
   -4.8110    0.4850    0.0000 C   0  0  0  0  0  0  0  0  0  0  0  0
   -0.4810   -0.0180    0.0000 C   0  0  0  0  0  0  0  0  0  0  0  0
  1  2  2  0  0  0  0
  2  3  1  0  0  0  0
  2 11  1  0  0  0  0
  3  4  2  0  0  0  0
  4  5  1  0  0  0  0
  5  6  1  0  0  0  0
  5 10  2  0  0  0  0
  6  7  2  0  0  0  0
  7  8  1  0  0  0  0
  8  9  2  0  0  0  0
  9 10  1  0  0  0  0
 11 12  1  0  0  0  0
 12 13  1  0  0  0  0
 12 27  2  0  0  0  0
 13 14  2  0  0  0  0
 14 15  1  0  0  0  0
 15 16  2  0  0  0  0
 16 17  1  0  0  0  0
 16 27  1  0  0  0  0
 17 18  2  0  0  0  0
 17 19  1  0  0  0  0
 19 20  1  0  0  0  0
 20 21  1  0  0  0  0
 20 26  2  0  0  0  0
 21 22  2  0  0  0  0
 22 23  1  0  0  0  0
 23 24  1  0  0  0  0
 23 25  2  0  0  0  0
 25 26  1  0  0  0  0
M  END
> <name>
decoy83

> <label>
0

$$$$
decoy84
  -OEChem-10082421392D

 31 34  0     0  0  0  0  0  0999 V2000
    0.4560   -2.2320    0.0000 O   0  0  0  0  0  0  0  0  0  0  0  0
    1.4510   -2.3400    0.0000 C   0  0  0  0  0  0  0  0  0  0  0  0
    2.0410   -1.5340    0.0000 N   0  0  0  0  0  0  0  0  0  0  0  0
    1.6390   -0.6190    0.0000 C   0  0  0  0  0  0  0  0  0  0  0  0
    0.6610   -0.4060    0.0000 N   0  0  0  0  0  0  0  0  0  0  0  0
    0.5620    0.5880    0.0000 C   0  0  0  0  0  0  0  0  0  0  0  0
   -0.3030    1.0920    0.0000 N   0  0  0  0  0  0  0  0  0  0  0  0
   -1.1710    0.5960    0.0000 C   0  0  0  0  0  0  0  0  0  0  0  0
   -1.1750   -0.4040    0.0000 O   0  5  0  0  0  0  0  0  0  0  0  0
   -2.0350    1.1000    0.0000 C   0  0  0  0  0  0  0  0  0  0  0  0
   -2.9030    0.6030    0.0000 C   0  0  0  0  0  0  0  0  0  0  0  0
   -3.7660    1.1070    0.0000 C   0  0  0  0  0  0  0  0  0  0  0  0
   -3.7630    2.1070    0.0000 C   0  0  0  0  0  0  0  0  0  0  0  0
   -4.6260    2.6110    0.0000 C   0  0  0  0  0  0  0  0  0  0  0  0
   -5.4950    2.1140    0.0000 C   0  0  0  0  0  0  0  0  0  0  0  0
   -5.4990    1.1150    0.0000 C   0  0  0  0  0  0  0  0  0  0  0  0
   -4.6350    0.6100    0.0000 C   0  0  0  0  0  0  0  0  0  0  0  0
    1.4770    0.9920    0.0000 N   0  0  0  0  0  0  0  0  0  0  0  0
    1.6880    1.9680    0.0000 C   0  0  0  0  0  0  0  0  0  0  0  0
    2.6420    2.2740    0.0000 C   0  0  0  0  0  0  0  0  0  0  0  0
    2.8520    3.2510    0.0000 C   0  0  0  0  0  0  0  0  0  0  0  0
    2.1140    3.9240    0.0000 C   0  0  0  0  0  0  0  0  0  0  0  0
    1.1590    3.6180    0.0000 C   0  0  0  0  0  0  0  0  0  0  0  0
    0.9490    2.6410    0.0000 C   0  0  0  0  0  0  0  0  0  0  0  0
    2.1420    0.2450    0.0000 N   0  0  0  0  0  0  0  0  0  0  0  0
    1.8540   -3.2550    0.0000 C   0  0  0  0  0  0  0  0  0  0  0  0
    1.2630   -4.0620    0.0000 C   0  0  0  0  0  0  0  0  0  0  0  0
    1.6660   -4.9760    0.0000 C   0  0  0  0  0  0  0  0  0  0  0  0
    2.6600   -5.0860    0.0000 C   0  0  0  0  0  0  0  0  0  0  0  0
    3.2500   -4.2790    0.0000 C   0  0  0  0  0  0  0  0  0  0  0  0
    2.8480   -3.3640    0.0000 C   0  0  0  0  0  0  0  0  0  0  0  0
  1  2  2  0  0  0  0
  2  3  1  0  0  0  0
  2 26  1  0  0  0  0
  3  4  1  0  0  0  0
  4  5  1  0  0  0  0
  4 25  2  0  0  0  0
  5  6  2  0  0  0  0
  6  7  1  0  0  0  0
  6 18  1  0  0  0  0
  7  8  2  0  0  0  0
  8  9  1  0  0  0  0
  8 10  1  0  0  0  0
 10 11  2  0  0  0  0
 11 12  1  0  0  0  0
 12 13  1  0  0  0  0
 12 17  2  0  0  0  0
 13 14  2  0  0  0  0
 14 15  1  0  0  0  0
 15 16  2  0  0  0  0
 16 17  1  0  0  0  0
 18 19  1  0  0  0  0
 18 25  1  0  0  0  0
 19 20  1  0  0  0  0
 19 24  2  0  0  0  0
 20 21  2  0  0  0  0
 21 22  1  0  0  0  0
 22 23  2  0  0  0  0
 23 24  1  0  0  0  0
 26 27  1  0  0  0  0
 26 31  2  0  0  0  0
 27 28  2  0  0  0  0
 28 29  1  0  0  0  0
 29 30  2  0  0  0  0
 30 31  1  0  0  0  0
M  CHG  1   9  -1
M  END
> <name>
decoy84

> <label>
0

$$$$
decoy85
  -OEChem-10082421392D

 27 28  0     0  0  0  0  0  0999 V2000
    0.7050    1.0380    0.0000 C   0  0  0  0  0  0  0  0  0  0  0  0
    1.5710    0.5380    0.0000 C   0  0  0  0  0  0  0  0  0  0  0  0
    1.5720   -0.4620    0.0000 O   0  0  0  0  0  0  0  0  0  0  0  0
    0.7060   -0.9620    0.0000 C   0  0  0  0  0  0  0  0  0  0  0  0
   -0.1600   -0.4630    0.0000 C   0  0  0  0  0  0  0  0  0  0  0  0
   -1.0260   -0.9640    0.0000 C   0  0  0  0  0  0  0  0  0  0  0  0
   -1.8920   -0.4640    0.0000 N   0  0  0  0  0  0  0  0  0  0  0  0
   -1.8930    0.5360    0.0000 C   0  0  0  0  0  0  0  0  0  0  0  0
   -2.7590    1.0350    0.0000 O   0  0  0  0  0  0  0  0  0  0  0  0
   -1.0270    1.0360    0.0000 C   0  0  0  0  0  0  0  0  0  0  0  0
   -1.0280    2.0360    0.0000 C   0  0  0  0  0  0  0  0  0  0  0  0
   -0.1620    2.5370    0.0000 C   0  0  0  0  0  0  0  0  0  0  0  0
    0.7040    2.0380    0.0000 C   0  0  0  0  0  0  0  0  0  0  0  0
    1.5700    2.5380    0.0000 C   0  0  0  0  0  0  0  0  0  0  0  0
    1.5690    3.5380    0.0000 C   0  0  0  0  0  0  0  0  0  0  0  0
    0.7020    4.0370    0.0000 C   0  0  0  0  0  0  0  0  0  0  0  0
   -0.1630    3.5370    0.0000 C   0  0  0  0  0  0  0  0  0  0  0  0
   -1.0250   -1.9640    0.0000 C   0  0  0  0  0  0  0  0  0  0  0  0
   -1.8900   -2.4640    0.0000 O   0  0  0  0  0  0  0  0  0  0  0  0
   -2.7570   -1.9650    0.0000 C   0  0  0  0  0  0  0  0  0  0  0  0
   -3.6220   -2.4660    0.0000 C   0  0  0  0  0  0  0  0  0  0  0  0
   -0.1580   -2.4630    0.0000 C   0  0  0  0  0  0  0  0  0  0  0  0
    0.7070   -1.9620    0.0000 C   0  0  0  0  0  0  0  0  0  0  0  0
    1.5740   -2.4620    0.0000 N   0  0  0  0  0  0  0  0  0  0  0  0
    2.4390   -1.9610    0.0000 C   0  0  0  0  0  0  0  0  0  0  0  0
    3.3060   -2.4600    0.0000 C   0  0  0  0  0  0  0  0  0  0  0  0
    2.4380   -0.9610    0.0000 O   0  0  0  0  0  0  0  0  0  0  0  0
  1  2  1  0  0  0  0
  2  3  1  0  0  0  0
  3  4  1  0  0  0  0
  4  5  1  0  0  0  0
  4 23  2  0  0  0  0
  5  6  2  0  0  0  0
  6  7  1  0  0  0  0
  6 18  1  0  0  0  0
  7  8  1  0  0  0  0
  8  9  2  0  0  0  0
  8 10  1  0  0  0  0
 10 11  2  0  0  0  0
 11 12  1  0  0  0  0
 12 13  1  0  0  0  0
 12 17  2  0  0  0  0
 13 14  2  0  0  0  0
 14 15  1  0  0  0  0
 15 16  2  0  0  0  0
 16 17  1  0  0  0  0
 18 19  1  0  0  0  0
 18 22  2  0  0  0  0
 19 20  1  0  0  0  0
 20 21  1  0  0  0  0
 22 23  1  0  0  0  0
 23 24  1  0  0  0  0
 24 25  1  0  0  0  0
 25 26  1  0  0  0  0
 25 27  2  0  0  0  0
M  END
> <name>
decoy85

> <label>
0

$$$$
decoy86
  -OEChem-10082421392D

 28 29  0     0  0  0  0  0  0999 V2000
    3.7710   -2.3960    0.0000 C   0  0  0  0  0  0  0  0  0  0  0  0
    2.9060   -1.8950    0.0000 C   0  0  0  0  0  0  0  0  0  0  0  0
    2.0390   -2.3940    0.0000 O   0  0  0  0  0  0  0  0  0  0  0  0
    1.1740   -1.8940    0.0000 C   0  0  0  0  0  0  0  0  0  0  0  0
    0.3070   -2.3930    0.0000 C   0  0  0  0  0  0  0  0  0  0  0  0
   -0.5580   -1.8920    0.0000 C   0  0  0  0  0  0  0  0  0  0  0  0
   -1.4250   -2.3920    0.0000 N   0  0  0  0  0  0  0  0  0  0  0  0
   -2.2900   -1.8910    0.0000 C   0  0  0  0  0  0  0  0  0  0  0  0
   -2.2890   -0.8910    0.0000 O   0  0  0  0  0  0  0  0  0  0  0  0
   -3.1570   -2.3900    0.0000 C   0  0  0  0  0  0  0  0  0  0  0  0
   -4.0220   -1.8900    0.0000 C   0  0  0  0  0  0  0  0  0  0  0  0
   -0.5570   -0.8920    0.0000 C   0  0  0  0  0  0  0  0  0  0  0  0
   -1.4230   -0.3920    0.0000 O   0  0  0  0  0  0  0  0  0  0  0  0
   -1.4220    0.6080    0.0000 C   0  0  0  0  0  0  0  0  0  0  0  0
   -0.5560    1.1080    0.0000 C   0  0  0  0  0  0  0  0  0  0  0  0
    0.3090   -0.3930    0.0000 C   0  0  0  0  0  0  0  0  0  0  0  0
    1.1750   -0.8940    0.0000 C   0  0  0  0  0  0  0  0  0  0  0  0
    2.0410   -0.3940    0.0000 N   0  0  0  0  0  0  0  0  0  0  0  0
    2.0420    0.6060    0.0000 C   0  0  0  0  0  0  0  0  0  0  0  0
    2.9080    1.1050    0.0000 O   0  0  0  0  0  0  0  0  0  0  0  0
    1.1760    1.1060    0.0000 C   0  0  0  0  0  0  0  0  0  0  0  0
    1.1770    2.1060    0.0000 C   0  0  0  0  0  0  0  0  0  0  0  0
    0.3110    2.6070    0.0000 C   0  0  0  0  0  0  0  0  0  0  0  0
   -0.5550    2.1080    0.0000 C   0  0  0  0  0  0  0  0  0  0  0  0
   -1.4210    2.6080    0.0000 C   0  0  0  0  0  0  0  0  0  0  0  0
   -1.4200    3.6080    0.0000 C   0  0  0  0  0  0  0  0  0  0  0  0
   -0.5530    4.1080    0.0000 C   0  0  0  0  0  0  0  0  0  0  0  0
    0.3120    3.6070    0.0000 C   0  0  0  0  0  0  0  0  0  0  0  0
  1  2  1  0  0  0  0
  2  3  1  0  0  0  0
  3  4  1  0  0  0  0
  4  5  1  0  0  0  0
  4 17  2  0  0  0  0
  5  6  2  0  0  0  0
  6  7  1  0  0  0  0
  6 12  1  0  0  0  0
  7  8  1  0  0  0  0
  8  9  2  0  0  0  0
  8 10  1  0  0  0  0
 10 11  1  0  0  0  0
 12 13  1  0  0  0  0
 12 16  2  0  0  0  0
 13 14  1  0  0  0  0
 14 15  1  0  0  0  0
 16 17  1  0  0  0  0
 17 18  1  0  0  0  0
 18 19  1  0  0  0  0
 19 20  2  0  0  0  0
 19 21  1  0  0  0  0
 21 22  2  0  0  0  0
 22 23  1  0  0  0  0
 23 24  1  0  0  0  0
 23 28  2  0  0  0  0
 24 25  2  0  0  0  0
 25 26  1  0  0  0  0
 26 27  2  0  0  0  0
 27 28  1  0  0  0  0
M  END
> <name>
decoy86

> <label>
0

$$$$
decoy87
  -OEChem-10082421392D

 30 32  0     0  0  0  0  0  0999 V2000
    4.6490   -2.0800    0.0000 C   0  0  0  0  0  0  0  0  0  0  0  0
    3.7830   -1.5800    0.0000 O   0  0  0  0  0  0  0  0  0  0  0  0
    3.7820   -0.5800    0.0000 C   0  0  0  0  0  0  0  0  0  0  0  0
    4.6480   -0.0800    0.0000 O   0  0  0  0  0  0  0  0  0  0  0  0
    2.9160   -0.0810    0.0000 C   0  0  0  0  0  0  0  0  0  0  0  0
    2.0500   -0.5820    0.0000 C   0  0  0  0  0  0  0  0  0  0  0  0
    1.1840   -0.0820    0.0000 C   0  0  0  0  0  0  0  0  0  0  0  0
    1.1830    0.9180    0.0000 C   0  0  0  0  0  0  0  0  0  0  0  0
    0.3160    1.4170    0.0000 C   0  0  0  0  0  0  0  0  0  0  0  0
   -0.5490    0.9160    0.0000 C   0  0  0  0  0  0  0  0  0  0  0  0
   -1.4160    1.4160    0.0000 C   0  0  0  0  0  0  0  0  0  0  0  0
   -1.4160    2.4160    0.0000 O   0  0  0  0  0  0  0  0  0  0  0  0
   -2.2810    0.9150    0.0000 N   0  0  0  0  0  0  0  0  0  0  0  0
   -3.1470    1.4140    0.0000 C   0  0  0  0  0  0  0  0  0  0  0  0
   -3.1480    2.4140    0.0000 C   0  0  0  0  0  0  0  0  0  0  0  0
   -4.0150    2.9130    0.0000 C   0  0  0  0  0  0  0  0  0  0  0  0
   -4.8800    2.4130    0.0000 C   0  0  0  0  0  0  0  0  0  0  0  0
   -4.8800    1.4130    0.0000 C   0  0  0  0  0  0  0  0  0  0  0  0
   -4.0130    0.9140    0.0000 C   0  0  0  0  0  0  0  0  0  0  0  0
   -0.5480   -0.0840    0.0000 C   0  0  0  0  0  0  0  0  0  0  0  0
   -1.4140   -0.5840    0.0000 O   0  0  0  0  0  0  0  0  0  0  0  0
    0.3180   -0.5830    0.0000 N   0  0  0  0  0  0  0  0  0  0  0  0
    0.3190   -1.5830    0.0000 C   0  0  0  0  0  0  0  0  0  0  0  0
   -0.5470   -2.0840    0.0000 C   0  0  0  0  0  0  0  0  0  0  0  0
   -0.5460   -3.0840    0.0000 C   0  0  0  0  0  0  0  0  0  0  0  0
    0.3200   -3.5830    0.0000 C   0  0  0  0  0  0  0  0  0  0  0  0
    1.1860   -3.0820    0.0000 C   0  0  0  0  0  0  0  0  0  0  0  0
    1.1850   -2.0820    0.0000 C   0  0  0  0  0  0  0  0  0  0  0  0
    2.0480    1.4180    0.0000 C   0  0  0  0  0  0  0  0  0  0  0  0
    2.9150    0.9190    0.0000 C   0  0  0  0  0  0  0  0  0  0  0  0
  1  2  1  0  0  0  0
  2  3  1  0  0  0  0
  3  4  2  0  0  0  0
  3  5  1  0  0  0  0
  5  6  1  0  0  0  0
  5 30  2  0  0  0  0
  6  7  2  0  0  0  0
  7  8  1  0  0  0  0
  8  9  1  0  0  0  0
  8 29  2  0  0  0  0
  9 10  2  0  0  0  0
 10 11  1  0  0  0  0
 10 20  1  0  0  0  0
 11 12  2  0  0  0  0
 11 13  1  0  0  0  0
 13 14  1  0  0  0  0
 14 15  1  0  0  0  0
 14 19  2  0  0  0  0
 15 16  2  0  0  0  0
 16 17  1  0  0  0  0
 17 18  2  0  0  0  0
 18 19  1  0  0  0  0
 20 21  2  0  0  0  0
 20 22  1  0  0  0  0
 22 23  1  0  0  0  0
 23 24  1  0  0  0  0
 23 28  2  0  0  0  0
 24 25  2  0  0  0  0
 25 26  1  0  0  0  0
 26 27  2  0  0  0  0
 27 28  1  0  0  0  0
 29 30  1  0  0  0  0
M  END
> <name>
decoy87

> <label>
0

$$$$
decoy88
  -OEChem-10082421392D

 27 29  0     0  0  0  0  0  0999 V2000
   -5.3880   -0.0700    0.0000 C   0  0  0  0  0  0  0  0  0  0  0  0
   -4.5220    0.4290    0.0000 O   0  0  0  0  0  0  0  0  0  0  0  0
   -3.6560   -0.0710    0.0000 C   0  0  0  0  0  0  0  0  0  0  0  0
   -2.7900    0.4280    0.0000 C   0  0  0  0  0  0  0  0  0  0  0  0
   -1.9240   -0.0730    0.0000 C   0  0  0  0  0  0  0  0  0  0  0  0
   -1.0580    0.4270    0.0000 C   0  0  0  0  0  0  0  0  0  0  0  0
   -0.1920   -0.0740    0.0000 C   0  0  0  0  0  0  0  0  0  0  0  0
    0.6740    0.4250    0.0000 C   0  0  0  0  0  0  0  0  0  0  0  0
    0.6750    1.4250    0.0000 O   0  0  0  0  0  0  0  0  0  0  0  0
    1.5400   -0.0750    0.0000 N   0  0  0  0  0  0  0  0  0  0  0  0
    2.4060    0.4240    0.0000 C   0  0  0  0  0  0  0  0  0  0  0  0
    2.4070    1.4240    0.0000 C   0  0  0  0  0  0  0  0  0  0  0  0
    3.2730    1.9230    0.0000 C   0  0  0  0  0  0  0  0  0  0  0  0
    4.1390    1.4230    0.0000 C   0  0  0  0  0  0  0  0  0  0  0  0
    5.0050    1.9220    0.0000 N   0  0  0  0  0  0  0  0  0  0  0  0
    5.8710    1.4210    0.0000 C   0  0  0  0  0  0  0  0  0  0  0  0
    5.8700    0.4210    0.0000 C   0  0  0  0  0  0  0  0  0  0  0  0
    5.0040   -0.0780    0.0000 C   0  0  0  0  0  0  0  0  0  0  0  0
    4.1380    0.4230    0.0000 C   0  0  0  0  0  0  0  0  0  0  0  0
    3.2720   -0.0770    0.0000 C   0  0  0  0  0  0  0  0  0  0  0  0
   -1.9250   -1.0730    0.0000 C   0  0  0  0  0  0  0  0  0  0  0  0
   -2.7920   -1.5720    0.0000 C   0  0  0  0  0  0  0  0  0  0  0  0
   -2.7920   -2.5720    0.0000 O   0  0  0  0  0  0  0  0  0  0  0  0
   -3.6590   -3.0710    0.0000 C   0  0  0  0  0  0  0  0  0  0  0  0
   -3.6570   -1.0710    0.0000 C   0  0  0  0  0  0  0  0  0  0  0  0
   -4.5240   -1.5710    0.0000 O   0  0  0  0  0  0  0  0  0  0  0  0
   -5.3890   -1.0700    0.0000 C   0  0  0  0  0  0  0  0  0  0  0  0
  1  2  1  0  0  0  0
  2  3  1  0  0  0  0
  3  4  1  0  0  0  0
  3 25  2  0  0  0  0
  4  5  2  0  0  0  0
  5  6  1  0  0  0  0
  5 21  1  0  0  0  0
  6  7  2  0  0  0  0
  7  8  1  0  0  0  0
  8  9  2  0  0  0  0
  8 10  1  0  0  0  0
 10 11  1  0  0  0  0
 11 12  2  0  0  0  0
 11 20  1  0  0  0  0
 12 13  1  0  0  0  0
 13 14  2  0  0  0  0
 14 15  1  0  0  0  0
 14 19  1  0  0  0  0
 15 16  2  0  0  0  0
 16 17  1  0  0  0  0
 17 18  2  0  0  0  0
 18 19  1  0  0  0  0
 19 20  2  0  0  0  0
 21 22  2  0  0  0  0
 22 23  1  0  0  0  0
 22 25  1  0  0  0  0
 23 24  1  0  0  0  0
 25 26  1  0  0  0  0
 26 27  1  0  0  0  0
M  END
> <name>
decoy88

> <label>
0

$$$$
decoy89
  -OEChem-10082421392D

 30 32  0     0  0  0  0  0  0999 V2000
    0.4250    1.4030    0.0000 C   0  0  0  0  0  0  0  0  0  0  0  0
    1.1700    0.7340    0.0000 C   0  0  0  0  0  0  0  0  0  0  0  0
    2.1470    0.9440    0.0000 N   0  0  0  0  0  0  0  0  0  0  0  0
    2.6480    0.0780    0.0000 N   0  0  0  0  0  0  0  0  0  0  0  0
    3.6420   -0.0260    0.0000 C   0  0  0  0  0  0  0  0  0  0  0  0
    4.2300    0.7840    0.0000 C   0  0  0  0  0  0  0  0  0  0  0  0
    5.2240    0.6790    0.0000 C   0  0  0  0  0  0  0  0  0  0  0  0
    5.6310   -0.2330    0.0000 Cl  0  0  0  0  0  0  0  0  0  0  0  0
    5.8100    1.4890    0.0000 C   0  0  0  0  0  0  0  0  0  0  0  0
    5.4040    2.4030    0.0000 C   0  0  0  0  0  0  0  0  0  0  0  0
    4.4100    2.5060    0.0000 C   0  0  0  0  0  0  0  0  0  0  0  0
    3.8220    1.6970    0.0000 C   0  0  0  0  0  0  0  0  0  0  0  0
    2.8280    1.8010    0.0000 Cl  0  0  0  0  0  0  0  0  0  0  0  0
    1.9790   -0.6650    0.0000 C   0  0  0  0  0  0  0  0  0  0  0  0
    2.1880   -1.6440    0.0000 Cl  0  0  0  0  0  0  0  0  0  0  0  0
    1.0650   -0.2600    0.0000 C   0  0  0  0  0  0  0  0  0  0  0  0
    0.2000   -0.7600    0.0000 C   0  0  0  0  0  0  0  0  0  0  0  0
   -0.6660   -0.2610    0.0000 C   0  0  0  0  0  0  0  0  0  0  0  0
   -1.5320   -0.7620    0.0000 C   0  0  0  0  0  0  0  0  0  0  0  0
   -1.5310   -1.7620    0.0000 O   0  0  0  0  0  0  0  0  0  0  0  0
   -2.3980   -0.2620    0.0000 N   0  0  0  0  0  0  0  0  0  0  0  0
   -3.2640   -0.7630    0.0000 N   0  0  0  0  0  0  0  0  0  0  0  0
   -4.1310   -0.2640    0.0000 C   0  0  0  0  0  0  0  0  0  0  0  0
   -4.1310    0.7360    0.0000 O   0  0  0  0  0  0  0  0  0  0  0  0
   -4.9960   -0.7630    0.0000 C   0  0  0  0  0  0  0  0  0  0  0  0
   -4.9950   -1.7660    0.0000 C   0  0  0  0  0  0  0  0  0  0  0  0
   -5.8610   -2.2640    0.0000 C   0  0  0  0  0  0  0  0  0  0  0  0
   -6.7280   -1.7670    0.0000 C   0  0  0  0  0  0  0  0  0  0  0  0
   -6.7290   -0.7650    0.0000 C   0  0  0  0  0  0  0  0  0  0  0  0
   -5.8630   -0.2660    0.0000 N   0  0  0  0  0  0  0  0  0  0  0  0
  1  2  1  0  0  0  0
  2  3  2  0  0  0  0
  2 16  1  0  0  0  0
  3  4  1  0  0  0  0
  4  5  1  0  0  0  0
  4 14  1  0  0  0  0
  5  6  1  0  0  0  0
  6  7  1  0  0  0  0
  6 12  2  0  0  0  0
  7  8  1  0  0  0  0
  7  9  2  0  0  0  0
  9 10  1  0  0  0  0
 10 11  2  0  0  0  0
 11 12  1  0  0  0  0
 12 13  1  0  0  0  0
 14 15  1  0  0  0  0
 14 16  2  0  0  0  0
 16 17  1  0  0  0  0
 17 18  2  0  0  0  0
 18 19  1  0  0  0  0
 19 20  2  0  0  0  0
 19 21  1  0  0  0  0
 21 22  1  0  0  0  0
 22 23  1  0  0  0  0
 23 24  2  0  0  0  0
 23 25  1  0  0  0  0
 25 26  1  0  0  0  0
 25 30  2  0  0  0  0
 26 27  2  0  0  0  0
 27 28  1  0  0  0  0
 28 29  2  0  0  0  0
 29 30  1  0  0  0  0
M  END
> <name>
decoy89

> <label>
0

$$$$
decoy90
  -OEChem-10082421392D

 23 25  0     0  0  0  0  0  0999 V2000
    0.4140    1.0440    0.0000 O   0  0  0  0  0  0  0  0  0  0  0  0
    0.4150    0.0440    0.0000 C   0  0  0  0  0  0  0  0  0  0  0  0
   -0.4500   -0.4570    0.0000 C   0  0  0  0  0  0  0  0  0  0  0  0
   -1.3170    0.0420    0.0000 C   0  0  0  0  0  0  0  0  0  0  0  0
   -2.1820   -0.4580    0.0000 C   0  0  0  0  0  0  0  0  0  0  0  0
   -2.1820   -1.4580    0.0000 C   0  0  0  0  0  0  0  0  0  0  0  0
   -3.0470   -1.9590    0.0000 C   0  0  0  0  0  0  0  0  0  0  0  0
   -3.9140   -1.4600    0.0000 C   0  0  0  0  0  0  0  0  0  0  0  0
   -3.9140   -0.4600    0.0000 C   0  0  0  0  0  0  0  0  0  0  0  0
   -4.7810    0.0400    0.0000 N   0  3  0  0  0  0  0  0  0  0  0  0
   -4.7820    1.0400    0.0000 O   0  0  0  0  0  0  0  0  0  0  0  0
   -5.6460   -0.4610    0.0000 O   0  5  0  0  0  0  0  0  0  0  0  0
   -3.0490    0.0410    0.0000 C   0  0  0  0  0  0  0  0  0  0  0  0
    1.2820   -0.4550    0.0000 N   0  0  0  0  0  0  0  0  0  0  0  0
    2.1470    0.0450    0.0000 C   0  0  0  0  0  0  0  0  0  0  0  0
    2.1460    1.0450    0.0000 C   0  0  0  0  0  0  0  0  0  0  0  0
    3.0120    1.5460    0.0000 C   0  0  0  0  0  0  0  0  0  0  0  0
    3.8780    1.0470    0.0000 C   0  0  0  0  0  0  0  0  0  0  0  0
    4.8290    1.3560    0.0000 N   0  0  0  0  0  0  0  0  0  0  0  0
    5.4170    0.5480    0.0000 C   0  0  0  0  0  0  0  0  0  0  0  0
    4.8300   -0.2620    0.0000 S   0  0  0  0  0  0  0  0  0  0  0  0
    3.8790    0.0470    0.0000 C   0  0  0  0  0  0  0  0  0  0  0  0
    3.0140   -0.4540    0.0000 C   0  0  0  0  0  0  0  0  0  0  0  0
  1  2  2  0  0  0  0
  2  3  1  0  0  0  0
  2 14  1  0  0  0  0
  3  4  2  0  0  0  0
  4  5  1  0  0  0  0
  5  6  1  0  0  0  0
  5 13  2  0  0  0  0
  6  7  2  0  0  0  0
  7  8  1  0  0  0  0
  8  9  2  0  0  0  0
  9 10  1  0  0  0  0
  9 13  1  0  0  0  0
 10 11  2  0  0  0  0
 10 12  1  0  0  0  0
 14 15  1  0  0  0  0
 15 16  2  0  0  0  0
 15 23  1  0  0  0  0
 16 17  1  0  0  0  0
 17 18  2  0  0  0  0
 18 19  1  0  0  0  0
 18 22  1  0  0  0  0
 19 20  2  0  0  0  0
 20 21  1  0  0  0  0
 21 22  1  0  0  0  0
 22 23  2  0  0  0  0
M  CHG  2  10   1  12  -1
M  END
> <name>
decoy90

> <label>
0

$$$$
decoy91
  -OEChem-10082421392D

 20 22  0     0  0  0  0  0  0999 V2000
   -0.3460    1.0750    0.0000 O   0  0  0  0  0  0  0  0  0  0  0  0
   -0.3450    0.0750    0.0000 C   0  0  0  0  0  0  0  0  0  0  0  0
   -1.2110   -0.4260    0.0000 C   0  0  0  0  0  0  0  0  0  0  0  0
   -2.0770    0.0730    0.0000 C   0  0  0  0  0  0  0  0  0  0  0  0
   -2.9430   -0.4270    0.0000 C   0  0  0  0  0  0  0  0  0  0  0  0
   -3.8090    0.0720    0.0000 C   0  0  0  0  0  0  0  0  0  0  0  0
   -4.6750   -0.4290    0.0000 C   0  0  0  0  0  0  0  0  0  0  0  0
   -4.6740   -1.4290    0.0000 C   0  0  0  0  0  0  0  0  0  0  0  0
   -3.8080   -1.9280    0.0000 C   0  0  0  0  0  0  0  0  0  0  0  0
   -2.9420   -1.4280    0.0000 C   0  0  0  0  0  0  0  0  0  0  0  0
    0.5210   -0.4250    0.0000 N   0  0  0  0  0  0  0  0  0  0  0  0
    1.3870    0.0760    0.0000 C   0  0  0  0  0  0  0  0  0  0  0  0
    1.3860    1.0760    0.0000 C   0  0  0  0  0  0  0  0  0  0  0  0
    2.2520    1.5770    0.0000 C   0  0  0  0  0  0  0  0  0  0  0  0
    3.1180    1.0780    0.0000 C   0  0  0  0  0  0  0  0  0  0  0  0
    4.0690    1.3870    0.0000 N   0  0  0  0  0  0  0  0  0  0  0  0
    4.6570    0.5790    0.0000 C   0  0  0  0  0  0  0  0  0  0  0  0
    4.0700   -0.2310    0.0000 S   0  0  0  0  0  0  0  0  0  0  0  0
    3.1190    0.0780    0.0000 C   0  0  0  0  0  0  0  0  0  0  0  0
    2.2530   -0.4230    0.0000 C   0  0  0  0  0  0  0  0  0  0  0  0
  1  2  2  0  0  0  0
  2  3  1  0  0  0  0
  2 11  1  0  0  0  0
  3  4  2  0  0  0  0
  4  5  1  0  0  0  0
  5  6  1  0  0  0  0
  5 10  2  0  0  0  0
  6  7  2  0  0  0  0
  7  8  1  0  0  0  0
  8  9  2  0  0  0  0
  9 10  1  0  0  0  0
 11 12  1  0  0  0  0
 12 13  2  0  0  0  0
 12 20  1  0  0  0  0
 13 14  1  0  0  0  0
 14 15  2  0  0  0  0
 15 16  1  0  0  0  0
 15 19  1  0  0  0  0
 16 17  2  0  0  0  0
 17 18  1  0  0  0  0
 18 19  1  0  0  0  0
 19 20  2  0  0  0  0
M  END
> <name>
decoy91

> <label>
0

$$$$
decoy92
  -OEChem-10082421392D

 29 31  0     0  0  0  0  0  0999 V2000
   -1.5720   -1.1660    0.0000 C   0  0  0  0  0  0  0  0  0  0  0  0
   -1.5760   -0.1660    0.0000 C   0  0  0  0  0  0  0  0  0  0  0  0
   -2.4430    0.3310    0.0000 N   0  0  0  0  0  0  0  0  0  0  0  0
   -3.3080   -0.1720    0.0000 N   0  0  0  0  0  0  0  0  0  0  0  0
   -4.1750    0.3250    0.0000 C   0  0  0  0  0  0  0  0  0  0  0  0
   -4.1790    1.3250    0.0000 O   0  0  0  0  0  0  0  0  0  0  0  0
   -5.0390   -0.1780    0.0000 C   0  0  0  0  0  0  0  0  0  0  0  0
   -5.1410   -1.1730    0.0000 C   0  0  0  0  0  0  0  0  0  0  0  0
   -6.1180   -1.3850    0.0000 C   0  0  0  0  0  0  0  0  0  0  0  0
   -6.6210   -0.5200    0.0000 C   0  0  0  0  0  0  0  0  0  0  0  0
   -7.6150   -0.4200    0.0000 Br  0  0  0  0  0  0  0  0  0  0  0  0
   -5.9540    0.2250    0.0000 O   0  0  0  0  0  0  0  0  0  0  0  0
   -0.7120    0.3380    0.0000 C   0  0  0  0  0  0  0  0  0  0  0  0
   -0.7140    1.3370    0.0000 C   0  0  0  0  0  0  0  0  0  0  0  0
    0.1490    1.8420    0.0000 C   0  0  0  0  0  0  0  0  0  0  0  0
    1.0190    1.3430    0.0000 C   0  0  0  0  0  0  0  0  0  0  0  0
    1.0200    0.3440    0.0000 C   0  0  0  0  0  0  0  0  0  0  0  0
    1.8890   -0.1530    0.0000 N   0  0  0  0  0  0  0  0  0  0  0  0
    2.7530    0.3500    0.0000 C   0  0  0  0  0  0  0  0  0  0  0  0
    2.7500    1.3500    0.0000 O   0  0  0  0  0  0  0  0  0  0  0  0
    3.6210   -0.1470    0.0000 C   0  0  0  0  0  0  0  0  0  0  0  0
    4.4850    0.3560    0.0000 C   0  0  0  0  0  0  0  0  0  0  0  0
    5.3540   -0.1410    0.0000 C   0  0  0  0  0  0  0  0  0  0  0  0
    5.3550   -1.1410    0.0000 C   0  0  0  0  0  0  0  0  0  0  0  0
    6.2250   -1.6390    0.0000 C   0  0  0  0  0  0  0  0  0  0  0  0
    7.0880   -1.1340    0.0000 C   0  0  0  0  0  0  0  0  0  0  0  0
    7.0860   -0.1350    0.0000 C   0  0  0  0  0  0  0  0  0  0  0  0
    6.2160    0.3630    0.0000 C   0  0  0  0  0  0  0  0  0  0  0  0
    0.1580   -0.1600    0.0000 C   0  0  0  0  0  0  0  0  0  0  0  0
  1  2  1  0  0  0  0
  2  3  2  0  0  0  0
  2 13  1  0  0  0  0
  3  4  1  0  0  0  0
  4  5  1  0  0  0  0
  5  6  2  0  0  0  0
  5  7  1  0  0  0  0
  7  8  2  0  0  0  0
  7 12  1  0  0  0  0
  8  9  1  0  0  0  0
  9 10  2  0  0  0  0
 10 11  1  0  0  0  0
 10 12  1  0  0  0  0
 13 14  1  0  0  0  0
 13 29  2  0  0  0  0
 14 15  2  0  0  0  0
 15 16  1  0  0  0  0
 16 17  2  0  0  0  0
 17 18  1  0  0  0  0
 17 29  1  0  0  0  0
 18 19  1  0  0  0  0
 19 20  2  0  0  0  0
 19 21  1  0  0  0  0
 21 22  2  0  0  0  0
 22 23  1  0  0  0  0
 23 24  1  0  0  0  0
 23 28  2  0  0  0  0
 24 25  2  0  0  0  0
 25 26  1  0  0  0  0
 26 27  2  0  0  0  0
 27 28  1  0  0  0  0
M  END
> <name>
decoy92

> <label>
0

$$$$
decoy93
  -OEChem-10082421392D

 29 31  0     0  0  0  0  0  0999 V2000
   -1.5720   -1.9560    0.0000 C   0  0  0  0  0  0  0  0  0  0  0  0
   -1.5740   -0.9560    0.0000 C   0  0  0  0  0  0  0  0  0  0  0  0
   -2.4410   -0.4580    0.0000 N   0  0  0  0  0  0  0  0  0  0  0  0
   -3.3060   -0.9600    0.0000 N   0  0  0  0  0  0  0  0  0  0  0  0
   -4.1730   -0.4620    0.0000 C   0  0  0  0  0  0  0  0  0  0  0  0
   -4.1750    0.5380    0.0000 O   0  0  0  0  0  0  0  0  0  0  0  0
   -5.0370   -0.9630    0.0000 C   0  0  0  0  0  0  0  0  0  0  0  0
   -5.1410   -1.9580    0.0000 C   0  0  0  0  0  0  0  0  0  0  0  0
   -6.1180   -2.1680    0.0000 C   0  0  0  0  0  0  0  0  0  0  0  0
   -6.6200   -1.3020    0.0000 C   0  0  0  0  0  0  0  0  0  0  0  0
   -7.6140   -1.2010    0.0000 Br  0  0  0  0  0  0  0  0  0  0  0  0
   -5.9520   -0.5590    0.0000 O   0  0  0  0  0  0  0  0  0  0  0  0
   -0.7100   -0.4540    0.0000 C   0  0  0  0  0  0  0  0  0  0  0  0
    0.1590   -0.9540    0.0000 C   0  0  0  0  0  0  0  0  0  0  0  0
    1.0220   -0.4510    0.0000 C   0  0  0  0  0  0  0  0  0  0  0  0
    1.0220    0.5490    0.0000 C   0  0  0  0  0  0  0  0  0  0  0  0
    1.8860    1.0510    0.0000 N   0  0  0  0  0  0  0  0  0  0  0  0
    2.7530    0.5520    0.0000 C   0  0  0  0  0  0  0  0  0  0  0  0
    2.7550   -0.4480    0.0000 O   0  0  0  0  0  0  0  0  0  0  0  0
    3.6180    1.0540    0.0000 C   0  0  0  0  0  0  0  0  0  0  0  0
    4.4850    0.5560    0.0000 C   0  0  0  0  0  0  0  0  0  0  0  0
    5.3490    1.0580    0.0000 C   0  0  0  0  0  0  0  0  0  0  0  0
    6.2180    0.5580    0.0000 C   0  0  0  0  0  0  0  0  0  0  0  0
    7.0810    1.0620    0.0000 C   0  0  0  0  0  0  0  0  0  0  0  0
    7.0820    2.0610    0.0000 C   0  0  0  0  0  0  0  0  0  0  0  0
    6.2120    2.5600    0.0000 C   0  0  0  0  0  0  0  0  0  0  0  0
    5.3490    2.0570    0.0000 C   0  0  0  0  0  0  0  0  0  0  0  0
    0.1530    1.0480    0.0000 C   0  0  0  0  0  0  0  0  0  0  0  0
   -0.7100    0.5450    0.0000 C   0  0  0  0  0  0  0  0  0  0  0  0
  1  2  1  0  0  0  0
  2  3  2  0  0  0  0
  2 13  1  0  0  0  0
  3  4  1  0  0  0  0
  4  5  1  0  0  0  0
  5  6  2  0  0  0  0
  5  7  1  0  0  0  0
  7  8  2  0  0  0  0
  7 12  1  0  0  0  0
  8  9  1  0  0  0  0
  9 10  2  0  0  0  0
 10 11  1  0  0  0  0
 10 12  1  0  0  0  0
 13 14  1  0  0  0  0
 13 29  2  0  0  0  0
 14 15  2  0  0  0  0
 15 16  1  0  0  0  0
 16 17  1  0  0  0  0
 16 28  2  0  0  0  0
 17 18  1  0  0  0  0
 18 19  2  0  0  0  0
 18 20  1  0  0  0  0
 20 21  2  0  0  0  0
 21 22  1  0  0  0  0
 22 23  1  0  0  0  0
 22 27  2  0  0  0  0
 23 24  2  0  0  0  0
 24 25  1  0  0  0  0
 25 26  2  0  0  0  0
 26 27  1  0  0  0  0
 28 29  1  0  0  0  0
M  END
> <name>
decoy93

> <label>
0

$$$$
decoy94
  -OEChem-10082421392D

 25 28  0     0  0  0  0  0  0999 V2000
   -1.5160    1.4540    0.0000 O   0  0  0  0  0  0  0  0  0  0  0  0
   -1.5160    0.4540    0.0000 C   0  0  0  0  0  0  0  0  0  0  0  0
   -2.3820   -0.0470    0.0000 C   0  0  0  0  0  0  0  0  0  0  0  0
   -3.2480    0.4530    0.0000 C   0  0  0  0  0  0  0  0  0  0  0  0
   -4.1130   -0.0480    0.0000 C   0  0  0  0  0  0  0  0  0  0  0  0
   -4.2180   -1.0420    0.0000 C   0  0  0  0  0  0  0  0  0  0  0  0
   -5.1950   -1.2520    0.0000 C   0  0  0  0  0  0  0  0  0  0  0  0
   -5.6960   -0.3860    0.0000 C   0  0  0  0  0  0  0  0  0  0  0  0
   -5.0270    0.3570    0.0000 O   0  0  0  0  0  0  0  0  0  0  0  0
   -0.6500   -0.0460    0.0000 N   0  0  0  0  0  0  0  0  0  0  0  0
    0.2150    0.4540    0.0000 C   0  0  0  0  0  0  0  0  0  0  0  0
    0.2160    1.4550    0.0000 C   0  0  0  0  0  0  0  0  0  0  0  0
    1.0800    1.9550    0.0000 C   0  0  0  0  0  0  0  0  0  0  0  0
    1.9480    1.4570    0.0000 C   0  0  0  0  0  0  0  0  0  0  0  0
    2.8120    1.9570    0.0000 N   0  0  0  0  0  0  0  0  0  0  0  0
    3.6810    1.4590    0.0000 C   0  0  0  0  0  0  0  0  0  0  0  0
    3.6800    0.4580    0.0000 N   0  0  0  0  0  0  0  0  0  0  0  0
    2.8160   -0.0420    0.0000 C   0  0  0  0  0  0  0  0  0  0  0  0
    2.8160   -1.0430    0.0000 N   0  0  0  0  0  0  0  0  0  0  0  0
    2.0070   -1.6300    0.0000 C   0  0  0  0  0  0  0  0  0  0  0  0
    2.3180   -2.5810    0.0000 C   0  0  0  0  0  0  0  0  0  0  0  0
    3.3160   -2.5810    0.0000 C   0  0  0  0  0  0  0  0  0  0  0  0
    3.6250   -1.6290    0.0000 C   0  0  0  0  0  0  0  0  0  0  0  0
    1.9480    0.4560    0.0000 C   0  0  0  0  0  0  0  0  0  0  0  0
    1.0840   -0.0440    0.0000 C   0  0  0  0  0  0  0  0  0  0  0  0
  1  2  2  0  0  0  0
  2  3  1  0  0  0  0
  2 10  1  0  0  0  0
  3  4  2  0  0  0  0
  4  5  1  0  0  0  0
  5  6  2  0  0  0  0
  5  9  1  0  0  0  0
  6  7  1  0  0  0  0
  7  8  2  0  0  0  0
  8  9  1  0  0  0  0
 10 11  1  0  0  0  0
 11 12  2  0  0  0  0
 11 25  1  0  0  0  0
 12 13  1  0  0  0  0
 13 14  2  0  0  0  0
 14 15  1  0  0  0  0
 14 24  1  0  0  0  0
 15 16  2  0  0  0  0
 16 17  1  0  0  0  0
 17 18  2  0  0  0  0
 18 19  1  0  0  0  0
 18 24  1  0  0  0  0
 19 20  1  0  0  0  0
 19 23  1  0  0  0  0
 20 21  1  0  0  0  0
 21 22  1  0  0  0  0
 22 23  1  0  0  0  0
 24 25  2  0  0  0  0
M  END
> <name>
decoy94

> <label>
0

$$$$
decoy95
  -OEChem-10082421392D

 26 29  0     0  0  0  0  0  0999 V2000
   -1.6250    1.5610    0.0000 O   0  0  0  0  0  0  0  0  0  0  0  0
   -1.6240    0.5610    0.0000 C   0  0  0  0  0  0  0  0  0  0  0  0
   -2.4900    0.0600    0.0000 C   0  0  0  0  0  0  0  0  0  0  0  0
   -3.3570    0.5600    0.0000 C   0  0  0  0  0  0  0  0  0  0  0  0
   -4.2210    0.0600    0.0000 C   0  0  0  0  0  0  0  0  0  0  0  0
   -4.3260   -0.9350    0.0000 C   0  0  0  0  0  0  0  0  0  0  0  0
   -5.3030   -1.1440    0.0000 C   0  0  0  0  0  0  0  0  0  0  0  0
   -5.8040   -0.2780    0.0000 C   0  0  0  0  0  0  0  0  0  0  0  0
   -5.1360    0.4650    0.0000 O   0  0  0  0  0  0  0  0  0  0  0  0
   -0.7580    0.0620    0.0000 N   0  0  0  0  0  0  0  0  0  0  0  0
    0.1070    0.5620    0.0000 C   0  0  0  0  0  0  0  0  0  0  0  0
    0.1080    1.5630    0.0000 C   0  0  0  0  0  0  0  0  0  0  0  0
    0.9720    2.0620    0.0000 C   0  0  0  0  0  0  0  0  0  0  0  0
    1.8400    1.5640    0.0000 C   0  0  0  0  0  0  0  0  0  0  0  0
    2.7040    2.0640    0.0000 N   0  0  0  0  0  0  0  0  0  0  0  0
    3.5720    1.5660    0.0000 C   0  0  0  0  0  0  0  0  0  0  0  0
    3.5710    0.5660    0.0000 N   0  0  0  0  0  0  0  0  0  0  0  0
    2.7070    0.0660    0.0000 C   0  0  0  0  0  0  0  0  0  0  0  0
    2.7070   -0.9360    0.0000 N   0  0  0  0  0  0  0  0  0  0  0  0
    1.8410   -1.4350    0.0000 C   0  0  0  0  0  0  0  0  0  0  0  0
    1.8420   -2.4370    0.0000 C   0  0  0  0  0  0  0  0  0  0  0  0
    2.7090   -2.9340    0.0000 C   0  0  0  0  0  0  0  0  0  0  0  0
    3.5750   -2.4360    0.0000 C   0  0  0  0  0  0  0  0  0  0  0  0
    3.5740   -1.4330    0.0000 C   0  0  0  0  0  0  0  0  0  0  0  0
    1.8390    0.5640    0.0000 C   0  0  0  0  0  0  0  0  0  0  0  0
    0.9750    0.0640    0.0000 C   0  0  0  0  0  0  0  0  0  0  0  0
  1  2  2  0  0  0  0
  2  3  1  0  0  0  0
  2 10  1  0  0  0  0
  3  4  2  0  0  0  0
  4  5  1  0  0  0  0
  5  6  2  0  0  0  0
  5  9  1  0  0  0  0
  6  7  1  0  0  0  0
  7  8  2  0  0  0  0
  8  9  1  0  0  0  0
 10 11  1  0  0  0  0
 11 12  2  0  0  0  0
 11 26  1  0  0  0  0
 12 13  1  0  0  0  0
 13 14  2  0  0  0  0
 14 15  1  0  0  0  0
 14 25  1  0  0  0  0
 15 16  2  0  0  0  0
 16 17  1  0  0  0  0
 17 18  2  0  0  0  0
 18 19  1  0  0  0  0
 18 25  1  0  0  0  0
 19 20  1  0  0  0  0
 19 24  1  0  0  0  0
 20 21  1  0  0  0  0
 21 22  1  0  0  0  0
 22 23  1  0  0  0  0
 23 24  1  0  0  0  0
 25 26  2  0  0  0  0
M  END
> <name>
decoy95

> <label>
0

$$$$
decoy96
  -OEChem-10082421392D

 32 35  0     0  0  0  0  0  0999 V2000
   -3.8960   -0.2640    0.0000 O   0  0  0  0  0  0  0  0  0  0  0  0
   -3.8930   -1.2640    0.0000 C   0  0  0  0  0  0  0  0  0  0  0  0
   -4.7570   -1.7670    0.0000 C   0  0  0  0  0  0  0  0  0  0  0  0
   -5.6250   -1.2710    0.0000 C   0  0  0  0  0  0  0  0  0  0  0  0
   -6.4880   -1.7730    0.0000 C   0  0  0  0  0  0  0  0  0  0  0  0
   -6.5900   -2.7680    0.0000 C   0  0  0  0  0  0  0  0  0  0  0  0
   -7.5670   -2.9800    0.0000 C   0  0  0  0  0  0  0  0  0  0  0  0
   -8.0710   -2.1150    0.0000 C   0  0  0  0  0  0  0  0  0  0  0  0
   -7.4040   -1.3710    0.0000 O   0  0  0  0  0  0  0  0  0  0  0  0
   -3.0250   -1.7610    0.0000 N   0  0  0  0  0  0  0  0  0  0  0  0
   -2.1620   -1.2580    0.0000 C   0  0  0  0  0  0  0  0  0  0  0  0
   -2.1630   -0.2580    0.0000 C   0  0  0  0  0  0  0  0  0  0  0  0
   -1.3010    0.2460    0.0000 C   0  0  0  0  0  0  0  0  0  0  0  0
   -0.4310   -0.2520    0.0000 C   0  0  0  0  0  0  0  0  0  0  0  0
    0.4310    0.2520    0.0000 C   0  0  0  0  0  0  0  0  0  0  0  0
    1.3010   -0.2460    0.0000 C   0  0  0  0  0  0  0  0  0  0  0  0
    2.1630    0.2580    0.0000 C   0  0  0  0  0  0  0  0  0  0  0  0
    2.1620    1.2580    0.0000 C   0  0  0  0  0  0  0  0  0  0  0  0
    3.0250    1.7610    0.0000 N   0  0  0  0  0  0  0  0  0  0  0  0
    3.8930    1.2640    0.0000 C   0  0  0  0  0  0  0  0  0  0  0  0
    3.8960    0.2640    0.0000 O   0  0  0  0  0  0  0  0  0  0  0  0
    4.7570    1.7670    0.0000 C   0  0  0  0  0  0  0  0  0  0  0  0
    5.6250    1.2710    0.0000 C   0  0  0  0  0  0  0  0  0  0  0  0
    6.4880    1.7730    0.0000 C   0  0  0  0  0  0  0  0  0  0  0  0
    6.5900    2.7680    0.0000 C   0  0  0  0  0  0  0  0  0  0  0  0
    7.5670    2.9800    0.0000 C   0  0  0  0  0  0  0  0  0  0  0  0
    8.0700    2.1150    0.0000 C   0  0  0  0  0  0  0  0  0  0  0  0
    7.4040    1.3710    0.0000 O   0  0  0  0  0  0  0  0  0  0  0  0
    1.2920    1.7560    0.0000 C   0  0  0  0  0  0  0  0  0  0  0  0
    0.4290    1.2510    0.0000 C   0  0  0  0  0  0  0  0  0  0  0  0
   -0.4290   -1.2510    0.0000 C   0  0  0  0  0  0  0  0  0  0  0  0
   -1.2920   -1.7560    0.0000 C   0  0  0  0  0  0  0  0  0  0  0  0
  1  2  2  0  0  0  0
  2  3  1  0  0  0  0
  2 10  1  0  0  0  0
  3  4  2  0  0  0  0
  4  5  1  0  0  0  0
  5  6  2  0  0  0  0
  5  9  1  0  0  0  0
  6  7  1  0  0  0  0
  7  8  2  0  0  0  0
  8  9  1  0  0  0  0
 10 11  1  0  0  0  0
 11 12  1  0  0  0  0
 11 32  2  0  0  0  0
 12 13  2  0  0  0  0
 13 14  1  0  0  0  0
 14 15  1  0  0  0  0
 14 31  2  0  0  0  0
 15 16  1  0  0  0  0
 15 30  2  0  0  0  0
 16 17  2  0  0  0  0
 17 18  1  0  0  0  0
 18 19  1  0  0  0  0
 18 29  2  0  0  0  0
 19 20  1  0  0  0  0
 20 21  2  0  0  0  0
 20 22  1  0  0  0  0
 22 23  2  0  0  0  0
 23 24  1  0  0  0  0
 24 25  2  0  0  0  0
 24 28  1  0  0  0  0
 25 26  1  0  0  0  0
 26 27  2  0  0  0  0
 27 28  1  0  0  0  0
 29 30  1  0  0  0  0
 31 32  1  0  0  0  0
M  END
> <name>
decoy96

> <label>
0

$$$$
decoy97
  -OEChem-10082421392D

 26 28  0     0  0  0  0  0  0999 V2000
   -2.3580    1.4450    0.0000 O   0  0  0  0  0  0  0  0  0  0  0  0
   -2.3570    0.4450    0.0000 C   0  0  0  0  0  0  0  0  0  0  0  0
   -3.2230   -0.0550    0.0000 C   0  0  0  0  0  0  0  0  0  0  0  0
   -4.0890    0.4440    0.0000 C   0  0  0  0  0  0  0  0  0  0  0  0
   -4.9540   -0.0560    0.0000 C   0  0  0  0  0  0  0  0  0  0  0  0
   -5.0590   -1.0510    0.0000 C   0  0  0  0  0  0  0  0  0  0  0  0
   -6.0360   -1.2600    0.0000 C   0  0  0  0  0  0  0  0  0  0  0  0
   -6.5370   -0.3940    0.0000 C   0  0  0  0  0  0  0  0  0  0  0  0
   -5.8680    0.3490    0.0000 O   0  0  0  0  0  0  0  0  0  0  0  0
   -1.4900   -0.0540    0.0000 N   0  0  0  0  0  0  0  0  0  0  0  0
   -0.6250    0.4460    0.0000 C   0  0  0  0  0  0  0  0  0  0  0  0
   -0.6260    1.4480    0.0000 C   0  0  0  0  0  0  0  0  0  0  0  0
    0.2400    1.9460    0.0000 C   0  0  0  0  0  0  0  0  0  0  0  0
    1.1070    1.4490    0.0000 C   0  0  0  0  0  0  0  0  0  0  0  0
    1.1080    0.4470    0.0000 C   0  0  0  0  0  0  0  0  0  0  0  0
    1.9740   -0.0510    0.0000 C   0  0  0  0  0  0  0  0  0  0  0  0
    1.9750   -1.0510    0.0000 O   0  0  0  0  0  0  0  0  0  0  0  0
    2.8390    0.4500    0.0000 N   0  0  0  0  0  0  0  0  0  0  0  0
    3.7050   -0.0480    0.0000 C   0  0  0  0  0  0  0  0  0  0  0  0
    3.7060   -1.0510    0.0000 C   0  0  0  0  0  0  0  0  0  0  0  0
    4.5730   -1.5480    0.0000 C   0  0  0  0  0  0  0  0  0  0  0  0
    5.4390   -1.0500    0.0000 C   0  0  0  0  0  0  0  0  0  0  0  0
    6.3050   -1.5480    0.0000 Br  0  0  0  0  0  0  0  0  0  0  0  0
    5.4380   -0.0470    0.0000 C   0  0  0  0  0  0  0  0  0  0  0  0
    4.5710    0.4500    0.0000 C   0  0  0  0  0  0  0  0  0  0  0  0
    0.2420   -0.0520    0.0000 C   0  0  0  0  0  0  0  0  0  0  0  0
  1  2  2  0  0  0  0
  2  3  1  0  0  0  0
  2 10  1  0  0  0  0
  3  4  2  0  0  0  0
  4  5  1  0  0  0  0
  5  6  2  0  0  0  0
  5  9  1  0  0  0  0
  6  7  1  0  0  0  0
  7  8  2  0  0  0  0
  8  9  1  0  0  0  0
 10 11  1  0  0  0  0
 11 12  1  0  0  0  0
 11 26  2  0  0  0  0
 12 13  2  0  0  0  0
 13 14  1  0  0  0  0
 14 15  2  0  0  0  0
 15 16  1  0  0  0  0
 15 26  1  0  0  0  0
 16 17  2  0  0  0  0
 16 18  1  0  0  0  0
 18 19  1  0  0  0  0
 19 20  1  0  0  0  0
 19 25  2  0  0  0  0
 20 21  2  0  0  0  0
 21 22  1  0  0  0  0
 22 23  1  0  0  0  0
 22 24  2  0  0  0  0
 24 25  1  0  0  0  0
M  END
> <name>
decoy97

> <label>
0

$$$$
decoy98
  -OEChem-10082421392D

 26 28  0     0  0  0  0  0  0999 V2000
   -2.3580    1.4450    0.0000 O   0  0  0  0  0  0  0  0  0  0  0  0
   -2.3570    0.4450    0.0000 C   0  0  0  0  0  0  0  0  0  0  0  0
   -3.2230   -0.0550    0.0000 C   0  0  0  0  0  0  0  0  0  0  0  0
   -4.0890    0.4440    0.0000 C   0  0  0  0  0  0  0  0  0  0  0  0
   -4.9540   -0.0560    0.0000 C   0  0  0  0  0  0  0  0  0  0  0  0
   -5.0590   -1.0510    0.0000 C   0  0  0  0  0  0  0  0  0  0  0  0
   -6.0360   -1.2600    0.0000 C   0  0  0  0  0  0  0  0  0  0  0  0
   -6.5370   -0.3940    0.0000 C   0  0  0  0  0  0  0  0  0  0  0  0
   -5.8680    0.3490    0.0000 O   0  0  0  0  0  0  0  0  0  0  0  0
   -1.4900   -0.0540    0.0000 N   0  0  0  0  0  0  0  0  0  0  0  0
   -0.6250    0.4460    0.0000 C   0  0  0  0  0  0  0  0  0  0  0  0
   -0.6260    1.4480    0.0000 C   0  0  0  0  0  0  0  0  0  0  0  0
    0.2400    1.9460    0.0000 C   0  0  0  0  0  0  0  0  0  0  0  0
    1.1070    1.4490    0.0000 C   0  0  0  0  0  0  0  0  0  0  0  0
    1.1080    0.4470    0.0000 C   0  0  0  0  0  0  0  0  0  0  0  0
    1.9740   -0.0510    0.0000 C   0  0  0  0  0  0  0  0  0  0  0  0
    1.9750   -1.0510    0.0000 O   0  0  0  0  0  0  0  0  0  0  0  0
    2.8390    0.4500    0.0000 N   0  0  0  0  0  0  0  0  0  0  0  0
    3.7050   -0.0480    0.0000 C   0  0  0  0  0  0  0  0  0  0  0  0
    3.7060   -1.0510    0.0000 C   0  0  0  0  0  0  0  0  0  0  0  0
    4.5730   -1.5480    0.0000 C   0  0  0  0  0  0  0  0  0  0  0  0
    5.4390   -1.0500    0.0000 C   0  0  0  0  0  0  0  0  0  0  0  0
    6.3050   -1.5480    0.0000 Cl  0  0  0  0  0  0  0  0  0  0  0  0
    5.4380   -0.0470    0.0000 C   0  0  0  0  0  0  0  0  0  0  0  0
    4.5710    0.4500    0.0000 C   0  0  0  0  0  0  0  0  0  0  0  0
    0.2420   -0.0520    0.0000 C   0  0  0  0  0  0  0  0  0  0  0  0
  1  2  2  0  0  0  0
  2  3  1  0  0  0  0
  2 10  1  0  0  0  0
  3  4  2  0  0  0  0
  4  5  1  0  0  0  0
  5  6  2  0  0  0  0
  5  9  1  0  0  0  0
  6  7  1  0  0  0  0
  7  8  2  0  0  0  0
  8  9  1  0  0  0  0
 10 11  1  0  0  0  0
 11 12  1  0  0  0  0
 11 26  2  0  0  0  0
 12 13  2  0  0  0  0
 13 14  1  0  0  0  0
 14 15  2  0  0  0  0
 15 16  1  0  0  0  0
 15 26  1  0  0  0  0
 16 17  2  0  0  0  0
 16 18  1  0  0  0  0
 18 19  1  0  0  0  0
 19 20  1  0  0  0  0
 19 25  2  0  0  0  0
 20 21  2  0  0  0  0
 21 22  1  0  0  0  0
 22 23  1  0  0  0  0
 22 24  2  0  0  0  0
 24 25  1  0  0  0  0
M  END
> <name>
decoy98

> <label>
0

$$$$
decoy99
  -OEChem-10082421392D

 26 28  0     0  0  0  0  0  0999 V2000
   -2.3580    1.4450    0.0000 O   0  0  0  0  0  0  0  0  0  0  0  0
   -2.3570    0.4450    0.0000 C   0  0  0  0  0  0  0  0  0  0  0  0
   -3.2230   -0.0550    0.0000 C   0  0  0  0  0  0  0  0  0  0  0  0
   -4.0890    0.4440    0.0000 C   0  0  0  0  0  0  0  0  0  0  0  0
   -4.9540   -0.0560    0.0000 C   0  0  0  0  0  0  0  0  0  0  0  0
   -5.0590   -1.0510    0.0000 C   0  0  0  0  0  0  0  0  0  0  0  0
   -6.0360   -1.2600    0.0000 C   0  0  0  0  0  0  0  0  0  0  0  0
   -6.5370   -0.3940    0.0000 C   0  0  0  0  0  0  0  0  0  0  0  0
   -5.8680    0.3490    0.0000 O   0  0  0  0  0  0  0  0  0  0  0  0
   -1.4900   -0.0540    0.0000 N   0  0  0  0  0  0  0  0  0  0  0  0
   -0.6250    0.4460    0.0000 C   0  0  0  0  0  0  0  0  0  0  0  0
   -0.6260    1.4480    0.0000 C   0  0  0  0  0  0  0  0  0  0  0  0
    0.2400    1.9460    0.0000 C   0  0  0  0  0  0  0  0  0  0  0  0
    1.1070    1.4490    0.0000 C   0  0  0  0  0  0  0  0  0  0  0  0
    1.1080    0.4470    0.0000 C   0  0  0  0  0  0  0  0  0  0  0  0
    1.9740   -0.0510    0.0000 C   0  0  0  0  0  0  0  0  0  0  0  0
    1.9750   -1.0510    0.0000 O   0  0  0  0  0  0  0  0  0  0  0  0
    2.8390    0.4500    0.0000 N   0  0  0  0  0  0  0  0  0  0  0  0
    3.7050   -0.0480    0.0000 C   0  0  0  0  0  0  0  0  0  0  0  0
    3.7060   -1.0510    0.0000 C   0  0  0  0  0  0  0  0  0  0  0  0
    4.5730   -1.5480    0.0000 C   0  0  0  0  0  0  0  0  0  0  0  0
    5.4390   -1.0500    0.0000 C   0  0  0  0  0  0  0  0  0  0  0  0
    6.3050   -1.5480    0.0000 F   0  0  0  0  0  0  0  0  0  0  0  0
    5.4380   -0.0470    0.0000 C   0  0  0  0  0  0  0  0  0  0  0  0
    4.5710    0.4500    0.0000 C   0  0  0  0  0  0  0  0  0  0  0  0
    0.2420   -0.0520    0.0000 C   0  0  0  0  0  0  0  0  0  0  0  0
  1  2  2  0  0  0  0
  2  3  1  0  0  0  0
  2 10  1  0  0  0  0
  3  4  2  0  0  0  0
  4  5  1  0  0  0  0
  5  6  2  0  0  0  0
  5  9  1  0  0  0  0
  6  7  1  0  0  0  0
  7  8  2  0  0  0  0
  8  9  1  0  0  0  0
 10 11  1  0  0  0  0
 11 12  1  0  0  0  0
 11 26  2  0  0  0  0
 12 13  2  0  0  0  0
 13 14  1  0  0  0  0
 14 15  2  0  0  0  0
 15 16  1  0  0  0  0
 15 26  1  0  0  0  0
 16 17  2  0  0  0  0
 16 18  1  0  0  0  0
 18 19  1  0  0  0  0
 19 20  1  0  0  0  0
 19 25  2  0  0  0  0
 20 21  2  0  0  0  0
 21 22  1  0  0  0  0
 22 23  1  0  0  0  0
 22 24  2  0  0  0  0
 24 25  1  0  0  0  0
M  END
> <name>
decoy99

> <label>
0

$$$$
decoy100
  -OEChem-10082421392D

 26 28  0     0  0  0  0  0  0999 V2000
   -2.3580    1.4450    0.0000 O   0  0  0  0  0  0  0  0  0  0  0  0
   -2.3570    0.4450    0.0000 C   0  0  0  0  0  0  0  0  0  0  0  0
   -3.2230   -0.0550    0.0000 C   0  0  0  0  0  0  0  0  0  0  0  0
   -4.0890    0.4440    0.0000 C   0  0  0  0  0  0  0  0  0  0  0  0
   -4.9540   -0.0560    0.0000 C   0  0  0  0  0  0  0  0  0  0  0  0
   -5.0590   -1.0510    0.0000 C   0  0  0  0  0  0  0  0  0  0  0  0
   -6.0360   -1.2600    0.0000 C   0  0  0  0  0  0  0  0  0  0  0  0
   -6.5370   -0.3940    0.0000 C   0  0  0  0  0  0  0  0  0  0  0  0
   -5.8680    0.3490    0.0000 S   0  0  0  0  0  0  0  0  0  0  0  0
   -1.4900   -0.0540    0.0000 N   0  0  0  0  0  0  0  0  0  0  0  0
   -0.6250    0.4460    0.0000 C   0  0  0  0  0  0  0  0  0  0  0  0
   -0.6260    1.4480    0.0000 C   0  0  0  0  0  0  0  0  0  0  0  0
    0.2400    1.9460    0.0000 C   0  0  0  0  0  0  0  0  0  0  0  0
    1.1070    1.4490    0.0000 C   0  0  0  0  0  0  0  0  0  0  0  0
    1.1080    0.4470    0.0000 C   0  0  0  0  0  0  0  0  0  0  0  0
    1.9740   -0.0510    0.0000 C   0  0  0  0  0  0  0  0  0  0  0  0
    1.9750   -1.0510    0.0000 O   0  0  0  0  0  0  0  0  0  0  0  0
    2.8390    0.4500    0.0000 N   0  0  0  0  0  0  0  0  0  0  0  0
    3.7050   -0.0480    0.0000 C   0  0  0  0  0  0  0  0  0  0  0  0
    3.7060   -1.0510    0.0000 C   0  0  0  0  0  0  0  0  0  0  0  0
    4.5730   -1.5480    0.0000 C   0  0  0  0  0  0  0  0  0  0  0  0
    5.4390   -1.0500    0.0000 C   0  0  0  0  0  0  0  0  0  0  0  0
    6.3050   -1.5480    0.0000 F   0  0  0  0  0  0  0  0  0  0  0  0
    5.4380   -0.0470    0.0000 C   0  0  0  0  0  0  0  0  0  0  0  0
    4.5710    0.4500    0.0000 C   0  0  0  0  0  0  0  0  0  0  0  0
    0.2420   -0.0520    0.0000 C   0  0  0  0  0  0  0  0  0  0  0  0
  1  2  2  0  0  0  0
  2  3  1  0  0  0  0
  2 10  1  0  0  0  0
  3  4  2  0  0  0  0
  4  5  1  0  0  0  0
  5  6  2  0  0  0  0
  5  9  1  0  0  0  0
  6  7  1  0  0  0  0
  7  8  2  0  0  0  0
  8  9  1  0  0  0  0
 10 11  1  0  0  0  0
 11 12  1  0  0  0  0
 11 26  2  0  0  0  0
 12 13  2  0  0  0  0
 13 14  1  0  0  0  0
 14 15  2  0  0  0  0
 15 16  1  0  0  0  0
 15 26  1  0  0  0  0
 16 17  2  0  0  0  0
 16 18  1  0  0  0  0
 18 19  1  0  0  0  0
 19 20  1  0  0  0  0
 19 25  2  0  0  0  0
 20 21  2  0  0  0  0
 21 22  1  0  0  0  0
 22 23  1  0  0  0  0
 22 24  2  0  0  0  0
 24 25  1  0  0  0  0
M  END
> <name>
decoy100

> <label>
0

$$$$
